tests/data/upgrade-models/sb10_p1rhs25_1247_trans_301/p1rdt12732/OpenDSS/Lines.dss
New Line.l(r:p1rdt5096lv-p1rlv10450) Units=km Length=0.017377 bus1=p1rdt5096lv.1.2 bus2=p1rlv10450.1.2 switch=n enabled=y phases=2 Linecode=1P_OH_AL_2/0_Rucina_2

New Line.l(r:p1rdt5096lv-p1rlv10451) Units=km Length=0.044807200000000005 bus1=p1rdt5096lv.1.2 bus2=p1rlv10451.1.2 switch=n enabled=y phases=2 Linecode=1P_OH_AL_4/0_Zuzara_2

New Line.l(r:p1rdt5096lv-p1rlv10455) Units=km Length=0.0284404 bus1=p1rdt5096lv.1.2 bus2=p1rlv10455.1.2 switch=n enabled=y phases=2 Linecode=1P_OH_AL_4/0_Zuzara_2

New Line.l(r:p1rdt5096lv-p1rlv10466) Units=km Length=0.0156381 bus1=p1rdt5096lv.1.2 bus2=p1rlv10466.1.2 switch=n enabled=y phases=2 Linecode=1P_OH_AL_2/0_Rucina_2

New Line.l(r:p1rdt5096lv-p1rlv10493) Units=km Length=0.056087 bus1=p1rdt5096lv.1.2 bus2=p1rlv10493.1.2 switch=n enabled=y phases=2 Linecode=1P_OH_AL_4/0_Zuzara_2

New Line.l(r:p1rdt5106lv-p1rlv10463) Units=km Length=0.0111193 bus1=p1rdt5106lv.1.2 bus2=p1rlv10463.1.2 switch=n enabled=y phases=2 Linecode=1P_OH_AL_2/0_Rucina_2

New Line.l(r:p1rdt5106lv-p1rlv15589) Units=km Length=0.0111193 bus1=p1rdt5106lv.1.2 bus2=p1rlv15589.1.2 switch=n enabled=y phases=2 Linecode=1P_OH_AL_2/0_Rucina_2

New Line.l(r:p1rdt5214lv-p1rlv10655) Units=km Length=0.013941 bus1=p1rdt5214lv.1.2 bus2=p1rlv10655.1.2 switch=n enabled=y phases=2 Linecode=1P_OH_AL_2/0_Rucina_2

New Line.l(r:p1rdt5214lv-p1rlv10696) Units=km Length=0.0182015 bus1=p1rdt5214lv.1.2 bus2=p1rlv10696.1.2 switch=n enabled=y phases=2 Linecode=1P_OH_AL_2/0_Rucina_2

New Line.l(r:p1rdt5214lv-p1rlv10715) Units=km Length=0.0114777 bus1=p1rdt5214lv.1.2 bus2=p1rlv10715.1.2 switch=n enabled=y phases=2 Linecode=1P_OH_AL_2/0_Rucina_2

New Line.l(r:p1rdt5246lv-p1rlv10755) Units=km Length=0.029235700000000003 bus1=p1rdt5246lv.1.2 bus2=p1rlv10755.1.2 switch=n enabled=y phases=2 Linecode=1P_OH_AL_4/0_Zuzara_2

New Line.l(r:p1rdt5246lv-p1rlv10881) Units=km Length=0.029235700000000003 bus1=p1rdt5246lv.1.2 bus2=p1rlv10881.1.2 switch=n enabled=y phases=2 Linecode=1P_OH_AL_4/0_Zuzara_2

New Line.l(r:p1rdt5318lv-p1rlv10901) Units=km Length=0.001 bus1=p1rdt5318lv.1.2 bus2=p1rlv10901.1.2 switch=n enabled=y phases=2 Linecode=1P_OH_AL_4_Periwinkle_2

New Line.l(r:p1rdt5384lv-p1rlv11092) Units=km Length=0.001 bus1=p1rdt5384lv.1.2 bus2=p1rlv11092.1.2 switch=n enabled=y phases=2 Linecode=1P_OH_AL_4_Periwinkle_2

New Line.l(r:p1rdt5619lv-p1rlv11603) Units=km Length=0.0911586 bus1=p1rdt5619lv.1.2 bus2=p1rlv11603.1.2 switch=n enabled=y phases=2 Linecode=1P_OH_AL_4/0_Zuzara_2

New Line.l(r:p1rdt5626lv-p1rlv11612) Units=km Length=0.056531700000000004 bus1=p1rdt5626lv.1.2 bus2=p1rlv11612.1.2 switch=n enabled=y phases=2 Linecode=1P_OH_AL_4/0_Zuzara_2

New Line.l(r:p1rdt5647lv-p1rlv11668) Units=km Length=0.033782 bus1=p1rdt5647lv.1.2 bus2=p1rlv11668.1.2 switch=n enabled=y phases=2 Linecode=1P_OH_AL_4/0_Zuzara_2

New Line.l(r:p1rdt5647lv-p1rlv16381) Units=km Length=0.0196841 bus1=p1rdt5647lv.1.2 bus2=p1rlv16381.1.2 switch=n enabled=y phases=2 Linecode=1P_OH_AL_2/0_Rucina_2

New Line.l(r:p1rdt5647lv-p1rlv16410) Units=km Length=0.0186303 bus1=p1rdt5647lv.1.2 bus2=p1rlv16410.1.2 switch=n enabled=y phases=2 Linecode=1P_OH_AL_2/0_Rucina_2

New Line.l(r:p1rdt5651lv-p1rlv11672) Units=km Length=0.0698201 bus1=p1rdt5651lv.1.2 bus2=p1rlv11672.1.2 switch=n enabled=y phases=2 Linecode=1P_OH_AL_4/0_Zuzara_2

New Line.l(r:p1rdt5651lv-p1rlv11680) Units=km Length=0.0698201 bus1=p1rdt5651lv.1.2 bus2=p1rlv11680.1.2 switch=n enabled=y phases=2 Linecode=1P_OH_AL_4/0_Zuzara_2

New Line.l(r:p1rdt5652lv-p1rlv11673) Units=km Length=0.041484400000000005 bus1=p1rdt5652lv.1.2 bus2=p1rlv11673.1.2 switch=n enabled=y phases=2 Linecode=1P_OH_AL_4/0_Zuzara_2

New Line.l(r:p1rdt5652lv-p1rlv11685) Units=km Length=0.0323517 bus1=p1rdt5652lv.1.2 bus2=p1rlv11685.1.2 switch=n enabled=y phases=2 Linecode=1P_OH_AL_4/0_Zuzara_2

New Line.l(r:p1rdt5652lv-p1rlv13327) Units=km Length=0.0731856 bus1=p1rdt5652lv.1.2 bus2=p1rlv13327.1.2 switch=n enabled=y phases=2 Linecode=1P_OH_AL_4/0_Zuzara_2

New Line.l(r:p1rdt5657lv-p1rlv11678) Units=km Length=0.0247671 bus1=p1rdt5657lv.1.2 bus2=p1rlv11678.1.2 switch=n enabled=y phases=2 Linecode=1P_OH_AL_2/0_Rucina_2

New Line.l(r:p1rdt5657lv-p1rlv13757) Units=km Length=0.0398179 bus1=p1rdt5657lv.1.2 bus2=p1rlv13757.1.2 switch=n enabled=y phases=2 Linecode=1P_OH_AL_4/0_Zuzara_2

New Line.l(r:p1rdt5657lv-p1rlv13763) Units=km Length=0.0316809 bus1=p1rdt5657lv.1.2 bus2=p1rlv13763.1.2 switch=n enabled=y phases=2 Linecode=1P_OH_AL_4/0_Zuzara_2

New Line.l(r:p1rdt5665lv-p1rlv11688) Units=km Length=0.001 bus1=p1rdt5665lv.1.2 bus2=p1rlv11688.1.2 switch=n enabled=y phases=2 Linecode=1P_OH_AL_4_Periwinkle_2

New Line.l(r:p1rdt5934lv-p1rlv12229) Units=km Length=0.0344215 bus1=p1rdt5934lv.1.2 bus2=p1rlv12229.1.2 switch=n enabled=y phases=2 Linecode=1P_OH_AL_4/0_Zuzara_2

New Line.l(r:p1rdt5934lv-p1rlv12329) Units=km Length=0.0134647 bus1=p1rdt5934lv.1.2 bus2=p1rlv12329.1.2 switch=n enabled=y phases=2 Linecode=1P_OH_AL_2/0_Rucina_2

New Line.l(r:p1rdt5934lv-p1rlv12332) Units=km Length=0.0294759 bus1=p1rdt5934lv.1.2 bus2=p1rlv12332.1.2 switch=n enabled=y phases=2 Linecode=1P_OH_AL_4/0_Zuzara_2

New Line.l(r:p1rdt5934lv-p1rlv12342) Units=km Length=0.0317352 bus1=p1rdt5934lv.1.2 bus2=p1rlv12342.1.2 switch=n enabled=y phases=2 Linecode=1P_OH_AL_4/0_Zuzara_2

New Line.l(r:p1rdt5934lv-p1rlv12411) Units=km Length=0.0216025 bus1=p1rdt5934lv.1.2 bus2=p1rlv12411.1.2 switch=n enabled=y phases=2 Linecode=1P_OH_AL_2/0_Rucina_2

New Line.l(r:p1rdt5934lv-p1rlv12465) Units=km Length=0.0431327 bus1=p1rdt5934lv.1.2 bus2=p1rlv12465.1.2 switch=n enabled=y phases=2 Linecode=1P_OH_AL_4/0_Zuzara_2

New Line.l(r:p1rdm12519-p1rlv12230) Units=km Length=0.036174300000000006 bus1=p1rdm12519.1.2 bus2=p1rlv12230.1.2 switch=n enabled=y phases=2 Linecode=1P_OH_AL_4/0_Zuzara_2

New Line.l(r:p1rdm12519-p1rdt5935lv) Units=km Length=0.0133447 bus1=p1rdt5935lv.1.2 bus2=p1rdm12519.1.2 switch=n enabled=y phases=2 Linecode=1P_OH_AL_2/0_Rucina_2

New Line.l(r:p1rdm12520-p1rlv12266) Units=km Length=0.029488 bus1=p1rdm12520.1.2 bus2=p1rlv12266.1.2 switch=n enabled=y phases=2 Linecode=1P_OH_AL_4/0_Zuzara_2

New Line.l(r:p1rdm12520-p1rdt5935lv) Units=km Length=0.0266992 bus1=p1rdt5935lv.1.2 bus2=p1rdm12520.1.2 switch=n enabled=y phases=2 Linecode=1P_OH_AL_2/0_Rucina_2

New Line.l(r:p1rdt5953lv-p1rlv12252) Units=km Length=0.051405400000000004 bus1=p1rdt5953lv.1.2 bus2=p1rlv12252.1.2 switch=n enabled=y phases=2 Linecode=1P_OH_AL_4/0_Zuzara_2

New Line.l(r:p1rdt5953lv-p1rlv12363) Units=km Length=0.051405400000000004 bus1=p1rdt5953lv.1.2 bus2=p1rlv12363.1.2 switch=n enabled=y phases=2 Linecode=1P_OH_AL_4/0_Zuzara_2

New Line.l(r:p1rdt5965lv-p1rlv12271) Units=km Length=0.051218 bus1=p1rdt5965lv.1.2 bus2=p1rlv12271.1.2 switch=n enabled=y phases=2 Linecode=1P_OH_AL_4/0_Zuzara_2

New Line.l(r:p1rdm12669-p1rlv12409) Units=km Length=0.0158678 bus1=p1rdm12669.1.2 bus2=p1rlv12409.1.2 switch=n enabled=y phases=2 Linecode=1P_OH_AL_2/0_Rucina_2

New Line.l(r:p1rdm12669-p1rdt5965lv) Units=km Length=0.018676 bus1=p1rdt5965lv.1.2 bus2=p1rdm12669.1.2 switch=n enabled=y phases=2 Linecode=1P_OH_AL_2/0_Rucina_2

New Line.l(r:p1rdt5973lv-p1rlv12289) Units=km Length=0.001 bus1=p1rdt5973lv.1.2 bus2=p1rlv12289.1.2 switch=n enabled=y phases=2 Linecode=1P_OH_AL_4_Periwinkle_2

New Line.l(r:p1rdt5979lv-p1rlv12304) Units=km Length=0.001 bus1=p1rdt5979lv.1.2 bus2=p1rlv12304.1.2 switch=n enabled=y phases=2 Linecode=1P_OH_AL_4_Periwinkle_2

New Line.l(r:p1rdt5980lv-p1rlv12305) Units=km Length=0.001 bus1=p1rdt5980lv.1.2 bus2=p1rlv12305.1.2 switch=n enabled=y phases=2 Linecode=1P_OH_AL_4_Periwinkle_2

New Line.l(r:p1rdt5997lv-p1rlv12366) Units=km Length=0.0131249 bus1=p1rdt5997lv.1.2 bus2=p1rlv12366.1.2 switch=n enabled=y phases=2 Linecode=1P_OH_AL_2/0_Rucina_2

New Line.l(r:p1rdt5997lv-p1rlv12421) Units=km Length=0.0134067 bus1=p1rdt5997lv.1.2 bus2=p1rlv12421.1.2 switch=n enabled=y phases=2 Linecode=1P_OH_AL_2/0_Rucina_2

New Line.l(r:p1rdt5997lv-p1rlv12471) Units=km Length=0.0492222 bus1=p1rdt5997lv.1.2 bus2=p1rlv12471.1.2 switch=n enabled=y phases=2 Linecode=1P_OH_AL_4/0_Zuzara_2

New Line.l(r:p1rdt5997lv-p1rlv17751) Units=km Length=0.0489847 bus1=p1rdt5997lv.1.2 bus2=p1rlv17751.1.2 switch=n enabled=y phases=2 Linecode=1P_OH_AL_4/0_Zuzara_2

New Line.l(r:p1rdt5999lv-p1rlv12389) Units=km Length=0.0188785 bus1=p1rdt5999lv.1.2 bus2=p1rlv12389.1.2 switch=n enabled=y phases=2 Linecode=1P_OH_AL_2/0_Rucina_2

New Line.l(r:p1rdt6007lv-p1rlv12443) Units=km Length=0.001 bus1=p1rdt6007lv.1.2 bus2=p1rlv12443.1.2 switch=n enabled=y phases=2 Linecode=1P_OH_AL_4_Periwinkle_2

New Line.l(r:p1rdt6237lv-p1rlv12990) Units=km Length=0.0447404 bus1=p1rdt6237lv.1.2 bus2=p1rlv12990.1.2 switch=n enabled=y phases=2 Linecode=1P_OH_AL_4/0_Zuzara_2

New Line.l(r:p1rdt6240lv-p1rlv12993) Units=km Length=0.0259836 bus1=p1rdt6240lv.1.2 bus2=p1rlv12993.1.2 switch=n enabled=y phases=2 Linecode=1P_OH_AL_2/0_Rucina_2

New Line.l(r:p1rdt6253lv-p1rlv13016) Units=km Length=0.0345331 bus1=p1rdt6253lv.1.2 bus2=p1rlv13016.1.2 switch=n enabled=y phases=2 Linecode=1P_OH_AL_4/0_Zuzara_2

New Line.l(r:p1rdt6257lv-p1rlv13022) Units=km Length=0.0494128 bus1=p1rdt6257lv.1.2 bus2=p1rlv13022.1.2 switch=n enabled=y phases=2 Linecode=1P_OH_AL_4/0_Zuzara_2

New Line.l(r:p1rdt6286lv-p1rlv13069) Units=km Length=0.0208943 bus1=p1rdt6286lv.1.2 bus2=p1rlv13069.1.2 switch=n enabled=y phases=2 Linecode=1P_OH_AL_2/0_Rucina_2

New Line.l(r:p1rdt6286lv-p1rlv13070) Units=km Length=0.0208943 bus1=p1rdt6286lv.1.2 bus2=p1rlv13070.1.2 switch=n enabled=y phases=2 Linecode=1P_OH_AL_2/0_Rucina_2

New Line.l(r:p1rdt6394lv-p1rlv13288) Units=km Length=0.001 bus1=p1rdt6394lv.1.2 bus2=p1rlv13288.1.2 switch=n enabled=y phases=2 Linecode=1P_OH_AL_4_Periwinkle_2

New Line.l(r:p1rdt6405lv-p1rlv13305) Units=km Length=0.001 bus1=p1rdt6405lv.1.2 bus2=p1rlv13305.1.2 switch=n enabled=y phases=2 Linecode=1P_OH_AL_4_Periwinkle_2

New Line.l(r:p1rdt6411lv-p1rlv13323) Units=km Length=0.0441313 bus1=p1rdt6411lv.1.2 bus2=p1rlv13323.1.2 switch=n enabled=y phases=2 Linecode=1P_OH_AL_4/0_Zuzara_2

New Line.l(r:p1rdt6412lv-p1rlv13331) Units=km Length=0.001 bus1=p1rdt6412lv.1.2 bus2=p1rlv13331.1.2 switch=n enabled=y phases=2 Linecode=1P_OH_AL_4_Periwinkle_2

New Line.l(r:p1rdt6540lv-p1rlv13729) Units=km Length=0.07206 bus1=p1rdt6540lv.1.2 bus2=p1rlv13729.1.2 switch=n enabled=y phases=2 Linecode=1P_OH_AL_4/0_Zuzara_2

New Line.l(r:p1rdt6543lv-p1rlv13732) Units=km Length=0.0687821 bus1=p1rdt6543lv.1.2 bus2=p1rlv13732.1.2 switch=n enabled=y phases=2 Linecode=1P_OH_AL_4/0_Zuzara_2

New Line.l(r:p1rdt6543lv-p1rlv13750) Units=km Length=0.04828520000000001 bus1=p1rdt6543lv.1.2 bus2=p1rlv13750.1.2 switch=n enabled=y phases=2 Linecode=1P_OH_AL_4/0_Zuzara_2

New Line.l(r:p1rdm14138-p1rlv13748) Units=km Length=0.0467694 bus1=p1rdm14138.1.2 bus2=p1rlv13748.1.2 switch=n enabled=y phases=2 Linecode=1P_OH_AL_4/0_Zuzara_2

New Line.l(r:p1rdm14137-p1rlv13742) Units=km Length=0.0400577 bus1=p1rdm14137.1.2 bus2=p1rlv13742.1.2 switch=n enabled=y phases=2 Linecode=1P_OH_AL_4/0_Zuzara_2

New Line.l(r:p1rdm14137-p1rdm14138) Units=km Length=0.0166037 bus1=p1rdm14138.1.2 bus2=p1rdm14137.1.2 switch=n enabled=y phases=2 Linecode=1P_OH_AL_2/0_Rucina_2

New Line.l(r:p1rdm14138-p1rdt6543lv) Units=km Length=0.0165898 bus1=p1rdt6543lv.1.2 bus2=p1rdm14138.1.2 switch=n enabled=y phases=2 Linecode=1P_OH_AL_2/0_Rucina_2

New Line.l(r:p1rdt6545lv-p1rlv13734) Units=km Length=0.00580952 bus1=p1rdt6545lv.1.2 bus2=p1rlv13734.1.2 switch=n enabled=y phases=2 Linecode=1P_OH_AL_2/0_Rucina_2

New Line.l(r:p1rdt6545lv-p1rlv13744) Units=km Length=0.0110222 bus1=p1rdt6545lv.1.2 bus2=p1rlv13744.1.2 switch=n enabled=y phases=2 Linecode=1P_OH_AL_2/0_Rucina_2

New Line.l(r:p1rdt6545lv-p1rlv13747) Units=km Length=0.03443160000000001 bus1=p1rdt6545lv.1.2 bus2=p1rlv13747.1.2 switch=n enabled=y phases=2 Linecode=1P_OH_AL_4/0_Zuzara_2

New Line.l(r:p1rdt6545lv-p1rlv13755) Units=km Length=0.022844900000000005 bus1=p1rdt6545lv.1.2 bus2=p1rlv13755.1.2 switch=n enabled=y phases=2 Linecode=1P_OH_AL_2/0_Rucina_2

New Line.l(r:p1rdt6546lv-p1rlv13737) Units=km Length=0.061853000000000005 bus1=p1rdt6546lv.1.2 bus2=p1rlv13737.1.2 switch=n enabled=y phases=2 Linecode=1P_OH_AL_4/0_Zuzara_2

New Line.l(r:p1rdt6546lv-p1rlv13740) Units=km Length=0.0524599 bus1=p1rdt6546lv.1.2 bus2=p1rlv13740.1.2 switch=n enabled=y phases=2 Linecode=1P_OH_AL_4/0_Zuzara_2

New Line.l(r:p1rdt6546lv-p1rlv13766) Units=km Length=0.0688552 bus1=p1rdt6546lv.1.2 bus2=p1rlv13766.1.2 switch=n enabled=y phases=2 Linecode=1P_OH_AL_4/0_Zuzara_2

New Line.l(r:p1rdm14146-p1rlv13735) Units=km Length=0.00305766 bus1=p1rdm14146.1.2 bus2=p1rlv13735.1.2 switch=n enabled=y phases=2 Linecode=1P_OH_AL_4_Periwinkle_2

New Line.l(r:p1rdm14150-p1rlv13773) Units=km Length=0.00839001 bus1=p1rdm14150.1.2 bus2=p1rlv13773.1.2 switch=n enabled=y phases=2 Linecode=1P_OH_AL_2/0_Rucina_2

New Line.l(r:p1rdm14146-p1rdm14150) Units=km Length=0.0251588 bus1=p1rdm14146.1.2 bus2=p1rdm14150.1.2 switch=n enabled=y phases=2 Linecode=1P_OH_AL_2/0_Rucina_2

New Line.l(r:p1rdm14146-p1rdt6546lv) Units=km Length=0.042709 bus1=p1rdt6546lv.1.2 bus2=p1rdm14146.1.2 switch=n enabled=y phases=2 Linecode=1P_OH_AL_4/0_Zuzara_2

New Line.l(r:p1rdt6547lv-p1rlv13736) Units=km Length=0.001 bus1=p1rdt6547lv.1.2 bus2=p1rlv13736.1.2 switch=n enabled=y phases=2 Linecode=1P_OH_AL_4_Periwinkle_2

New Line.l(r:p1rdt6548lv-p1rlv13738) Units=km Length=0.0977633 bus1=p1rdt6548lv.1.2 bus2=p1rlv13738.1.2 switch=n enabled=y phases=2 Linecode=1P_OH_AL_4/0_Zuzara_2

New Line.l(r:p1rdt6550lv-p1rlv13741) Units=km Length=0.048925 bus1=p1rdt6550lv.1.2 bus2=p1rlv13741.1.2 switch=n enabled=y phases=2 Linecode=1P_OH_AL_4/0_Zuzara_2

New Line.l(r:p1rdm14156-p1rlv13746) Units=km Length=0.07270480000000001 bus1=p1rdm14156.1.2 bus2=p1rlv13746.1.2 switch=n enabled=y phases=2 Linecode=1P_OH_AL_4/0_Zuzara_2

New Line.l(r:p1rdm14156-p1rdt6552lv) Units=km Length=0.0171628 bus1=p1rdt6552lv.1.2 bus2=p1rdm14156.1.2 switch=n enabled=y phases=2 Linecode=1P_OH_AL_2/0_Rucina_2

New Line.l(r:p1rdm14157-p1rlv13759) Units=km Length=0.0596179 bus1=p1rdm14157.1.2 bus2=p1rlv13759.1.2 switch=n enabled=y phases=2 Linecode=1P_OH_AL_4/0_Zuzara_2

New Line.l(r:p1rdm14157-p1rdt6552lv) Units=km Length=0.017166 bus1=p1rdt6552lv.1.2 bus2=p1rdm14157.1.2 switch=n enabled=y phases=2 Linecode=1P_OH_AL_2/0_Rucina_2

New Line.l(r:p1rdt6556lv-p1rlv13753) Units=km Length=0.0215299 bus1=p1rdt6556lv.1.2 bus2=p1rlv13753.1.2 switch=n enabled=y phases=2 Linecode=1P_OH_AL_2/0_Rucina_2

New Line.l(r:p1rdt6556lv-p1rlv13756) Units=km Length=0.0215299 bus1=p1rdt6556lv.1.2 bus2=p1rlv13756.1.2 switch=n enabled=y phases=2 Linecode=1P_OH_AL_2/0_Rucina_2

New Line.l(r:p1rdt6559lv-p1rlv13761) Units=km Length=0.001 bus1=p1rdt6559lv.1.2 bus2=p1rlv13761.1.2 switch=n enabled=y phases=2 Linecode=1P_OH_AL_4_Periwinkle_2

New Line.l(r:p1rdt6561lv-p1rlv13764) Units=km Length=0.023195400000000005 bus1=p1rdt6561lv.1.2 bus2=p1rlv13764.1.2 switch=n enabled=y phases=2 Linecode=1P_OH_AL_2/0_Rucina_2

New Line.l(r:p1rdt6562lv-p1rlv13765) Units=km Length=0.0629661 bus1=p1rdt6562lv.1.2 bus2=p1rlv13765.1.2 switch=n enabled=y phases=2 Linecode=1P_OH_AL_4/0_Zuzara_2

New Line.l(r:p1rdt6563lv-p1rlv13767) Units=km Length=0.0709161 bus1=p1rdt6563lv.1.2 bus2=p1rlv13767.1.2 switch=n enabled=y phases=2 Linecode=1P_OH_AL_4/0_Zuzara_2

New Line.l(r:p1rdt6565lv-p1rlv13769) Units=km Length=0.0391944 bus1=p1rdt6565lv.1.2 bus2=p1rlv13769.1.2 switch=n enabled=y phases=2 Linecode=1P_OH_AL_4/0_Zuzara_2

New Line.l(r:p1rdt6565lv-p1rlv13775) Units=km Length=0.0391944 bus1=p1rdt6565lv.1.2 bus2=p1rlv13775.1.2 switch=n enabled=y phases=2 Linecode=1P_OH_AL_4/0_Zuzara_2

New Line.l(r:p1rdt6566lv-p1rlv13770) Units=km Length=0.0633791 bus1=p1rdt6566lv.1.2 bus2=p1rlv13770.1.2 switch=n enabled=y phases=2 Linecode=1P_OH_AL_4/0_Zuzara_2

New Line.l(r:p1rdt6567lv-p1rlv13771) Units=km Length=0.001 bus1=p1rdt6567lv.1.2 bus2=p1rlv13771.1.2 switch=n enabled=y phases=2 Linecode=1P_OH_AL_4_Periwinkle_2

New Line.l(r:p1rdt6568lv-p1rlv13772) Units=km Length=0.046635100000000006 bus1=p1rdt6568lv.1.2 bus2=p1rlv13772.1.2 switch=n enabled=y phases=2 Linecode=1P_OH_AL_4/0_Zuzara_2

New Line.l(r:p1rdt6569lv-p1rlv13774) Units=km Length=0.001 bus1=p1rdt6569lv.1.2 bus2=p1rlv13774.1.2 switch=n enabled=y phases=2 Linecode=1P_OH_AL_4_Periwinkle_2

New Line.l(r:p1rdt6589lv-p1rlv13813) Units=km Length=0.0154011 bus1=p1rdt6589lv.1.2 bus2=p1rlv13813.1.2 switch=n enabled=y phases=2 Linecode=1P_OH_AL_2/0_Rucina_2

New Line.l(r:p1rdt6669lv-p1rlv13939) Units=km Length=0.0961887 bus1=p1rdt6669lv.1.2 bus2=p1rlv13939.1.2 switch=n enabled=y phases=2 Linecode=1P_OH_AL_4/0_Zuzara_2

New Line.l(r:p1rdt6669lv-p1rlv13960) Units=km Length=0.109881 bus1=p1rdt6669lv.1.2 bus2=p1rlv13960.1.2 switch=n enabled=y phases=2 Linecode=1P_OH_AL_4/0_Zuzara_2

New Line.l(r:p1rdm14356-p1rlv13940) Units=km Length=0.0330423 bus1=p1rdm14356.1.2 bus2=p1rlv13940.1.2 switch=n enabled=y phases=2 Linecode=1P_OH_AL_4/0_Zuzara_2

New Line.l(r:p1rdm14356-p1rdt6669lv) Units=km Length=0.0319884 bus1=p1rdt6669lv.1.2 bus2=p1rdm14356.1.2 switch=n enabled=y phases=2 Linecode=1P_OH_AL_4/0_Zuzara_2

New Line.l(r:p1rdm14357-p1rlv13941) Units=km Length=0.0832064 bus1=p1rdm14357.1.2 bus2=p1rlv13941.1.2 switch=n enabled=y phases=2 Linecode=1P_OH_AL_4/0_Zuzara_2

New Line.l(r:p1rdm14357-p1rdt6669lv) Units=km Length=0.0201408 bus1=p1rdt6669lv.1.2 bus2=p1rdm14357.1.2 switch=n enabled=y phases=2 Linecode=1P_OH_AL_2/0_Rucina_2

New Line.l(r:p1rdt6674lv-p1rlv13947) Units=km Length=0.001 bus1=p1rdt6674lv.1.2 bus2=p1rlv13947.1.2 switch=n enabled=y phases=2 Linecode=1P_OH_AL_4_Periwinkle_2

New Line.l(r:p1rdt6676lv-p1rlv13950) Units=km Length=0.0528441 bus1=p1rdt6676lv.1.2 bus2=p1rlv13950.1.2 switch=n enabled=y phases=2 Linecode=1P_OH_AL_4/0_Zuzara_2

New Line.l(r:p1rdm14371-p1rlv13953) Units=km Length=0.035897 bus1=p1rdm14371.1.2 bus2=p1rlv13953.1.2 switch=n enabled=y phases=2 Linecode=1P_OH_AL_4/0_Zuzara_2

New Line.l(r:p1rdm14371-p1rdt6676lv) Units=km Length=0.0160756 bus1=p1rdt6676lv.1.2 bus2=p1rdm14371.1.2 switch=n enabled=y phases=2 Linecode=1P_OH_AL_2/0_Rucina_2

New Line.l(r:p1rdt6678lv-p1rlv13955) Units=km Length=0.0328434 bus1=p1rdt6678lv.1.2 bus2=p1rlv13955.1.2 switch=n enabled=y phases=2 Linecode=1P_OH_AL_4/0_Zuzara_2

New Line.l(r:p1rdt6680lv-p1rlv13958) Units=km Length=0.001 bus1=p1rdt6680lv.1.2 bus2=p1rlv13958.1.2 switch=n enabled=y phases=2 Linecode=1P_OH_AL_4_Periwinkle_2

New Line.l(r:p1rdt6683lv-p1rlv13964) Units=km Length=0.001 bus1=p1rdt6683lv.1.2 bus2=p1rlv13964.1.2 switch=n enabled=y phases=2 Linecode=1P_OH_AL_4_Periwinkle_2

New Line.l(r:p1rdt6686lv-p1rlv13968) Units=km Length=0.0256964 bus1=p1rdt6686lv.1.2 bus2=p1rlv13968.1.2 switch=n enabled=y phases=2 Linecode=1P_OH_AL_2/0_Rucina_2

New Line.l(r:p1rdt6788lv-p1rlv14282) Units=km Length=0.0222282 bus1=p1rdt6788lv.1.2 bus2=p1rlv14282.1.2 switch=n enabled=y phases=2 Linecode=1P_OH_AL_2/0_Rucina_2

New Line.l(r:p1rdt6794lv-p1rlv14291) Units=km Length=0.0222155 bus1=p1rdt6794lv.1.2 bus2=p1rlv14291.1.2 switch=n enabled=y phases=2 Linecode=1P_OH_AL_2/0_Rucina_2

New Line.l(r:p1rdm14804-p1rlv14354) Units=km Length=0.0109644 bus1=p1rdm14804.1.2 bus2=p1rlv14354.1.2 switch=n enabled=y phases=2 Linecode=1P_OH_AL_2/0_Rucina_2

New Line.l(r:p1rdm14804-p1rdt6809lv) Units=km Length=0.0691387 bus1=p1rdt6809lv.1.2 bus2=p1rdm14804.1.2 switch=n enabled=y phases=2 Linecode=1P_OH_AL_4/0_Zuzara_2

New Line.l(r:p1rdm14805-p1rlv14404) Units=km Length=0.0410381 bus1=p1rdm14805.1.2 bus2=p1rlv14404.1.2 switch=n enabled=y phases=2 Linecode=1P_OH_AL_4/0_Zuzara_2

New Line.l(r:p1rdm14803-p1rlv14313) Units=km Length=0.022252900000000003 bus1=p1rdm14803.1.2 bus2=p1rlv14313.1.2 switch=n enabled=y phases=2 Linecode=1P_OH_AL_2/0_Rucina_2

New Line.l(r:p1rdm14806-p1rlv14413) Units=km Length=0.0155184 bus1=p1rdm14806.1.2 bus2=p1rlv14413.1.2 switch=n enabled=y phases=2 Linecode=1P_OH_AL_2/0_Rucina_2

New Line.l(r:p1rdm14803-p1rdm14806) Units=km Length=0.0183237 bus1=p1rdm14803.1.2 bus2=p1rdm14806.1.2 switch=n enabled=y phases=2 Linecode=1P_OH_AL_2/0_Rucina_2

New Line.l(r:p1rdm14803-p1rdm14805) Units=km Length=0.018314 bus1=p1rdm14805.1.2 bus2=p1rdm14803.1.2 switch=n enabled=y phases=2 Linecode=1P_OH_AL_2/0_Rucina_2

New Line.l(r:p1rdm14805-p1rdt6809lv) Units=km Length=0.0183115 bus1=p1rdt6809lv.1.2 bus2=p1rdm14805.1.2 switch=n enabled=y phases=2 Linecode=1P_OH_AL_2/0_Rucina_2

New Line.l(r:p1rdt6811lv-p1rlv14317) Units=km Length=0.0216442 bus1=p1rdt6811lv.1.2 bus2=p1rlv14317.1.2 switch=n enabled=y phases=2 Linecode=1P_OH_AL_2/0_Rucina_2

New Line.l(r:p1rdt6811lv-p1rlv14383) Units=km Length=0.0100065 bus1=p1rdt6811lv.1.2 bus2=p1rlv14383.1.2 switch=n enabled=y phases=2 Linecode=1P_OH_AL_2/0_Rucina_2

New Line.l(r:p1rdt6811lv-p1rlv14392) Units=km Length=0.00906355 bus1=p1rdt6811lv.1.2 bus2=p1rlv14392.1.2 switch=n enabled=y phases=2 Linecode=1P_OH_AL_2/0_Rucina_2

New Line.l(r:p1rdt6811lv-p1rlv14416) Units=km Length=0.0257505 bus1=p1rdt6811lv.1.2 bus2=p1rlv14416.1.2 switch=n enabled=y phases=2 Linecode=1P_OH_AL_2/0_Rucina_2

New Line.l(r:p1rdt6816lv-p1rlv14334) Units=km Length=0.0850386 bus1=p1rdt6816lv.1.2 bus2=p1rlv14334.1.2 switch=n enabled=y phases=2 Linecode=1P_OH_AL_4/0_Zuzara_2

New Line.l(r:p1rdt6819lv-p1rlv14338) Units=km Length=0.025016000000000004 bus1=p1rdt6819lv.1.2 bus2=p1rlv14338.1.2 switch=n enabled=y phases=2 Linecode=1P_OH_AL_2/0_Rucina_2

New Line.l(r:p1rdt7288lv-p1rlv15587) Units=km Length=0.015294600000000002 bus1=p1rdt7288lv.1.2 bus2=p1rlv15587.1.2 switch=n enabled=y phases=2 Linecode=1P_OH_AL_2/0_Rucina_2

New Line.l(r:p1rdt7288lv-p1rlv15596) Units=km Length=0.015294600000000002 bus1=p1rdt7288lv.1.2 bus2=p1rlv15596.1.2 switch=n enabled=y phases=2 Linecode=1P_OH_AL_2/0_Rucina_2

New Line.l(r:p1rdt7290lv-p1rlv15592) Units=km Length=0.001 bus1=p1rdt7290lv.1.2 bus2=p1rlv15592.1.2 switch=n enabled=y phases=2 Linecode=1P_OH_AL_4_Periwinkle_2

New Line.l(r:p1rdt7295lv-p1rlv15612) Units=km Length=0.00977946 bus1=p1rdt7295lv.1.2 bus2=p1rlv15612.1.2 switch=n enabled=y phases=2 Linecode=1P_OH_AL_2/0_Rucina_2

New Line.l(r:p1rdm16005-p1rlv15600) Units=km Length=0.0487139 bus1=p1rdm16005.1.2 bus2=p1rlv15600.1.2 switch=n enabled=y phases=2 Linecode=1P_OH_AL_4/0_Zuzara_2

New Line.l(r:p1rdm16005-p1rdt7295lv) Units=km Length=0.0195277 bus1=p1rdt7295lv.1.2 bus2=p1rdm16005.1.2 switch=n enabled=y phases=2 Linecode=1P_OH_AL_2/0_Rucina_2

New Line.l(r:p1rdt7296lv-p1rlv17194) Units=km Length=0.043995 bus1=p1rdt7296lv.1.2 bus2=p1rlv17194.1.2 switch=n enabled=y phases=2 Linecode=1P_OH_AL_4/0_Zuzara_2

New Line.l(r:p1rdm16007-p1rlv15601) Units=km Length=0.0269184 bus1=p1rdm16007.1.2 bus2=p1rlv15601.1.2 switch=n enabled=y phases=2 Linecode=1P_OH_AL_2/0_Rucina_2

New Line.l(r:p1rdm16007-p1rdt7296lv) Units=km Length=0.014096900000000002 bus1=p1rdt7296lv.1.2 bus2=p1rdm16007.1.2 switch=n enabled=y phases=2 Linecode=1P_OH_AL_2/0_Rucina_2

New Line.l(r:p1rdt7297lv-p1rlv15602) Units=km Length=0.071017 bus1=p1rdt7297lv.1.2 bus2=p1rlv15602.1.2 switch=n enabled=y phases=2 Linecode=1P_OH_AL_4/0_Zuzara_2

New Line.l(r:p1rdt7305lv-p1rlv15611) Units=km Length=0.0408606 bus1=p1rdt7305lv.1.2 bus2=p1rlv15611.1.2 switch=n enabled=y phases=2 Linecode=1P_OH_AL_4/0_Zuzara_2

New Line.l(r:p1rdm16023-p1rlv15626) Units=km Length=0.0704647 bus1=p1rdm16023.1.2 bus2=p1rlv15626.1.2 switch=n enabled=y phases=2 Linecode=1P_OH_AL_4/0_Zuzara_2

New Line.l(r:p1rdm16023-p1rdt7305lv) Units=km Length=0.0195277 bus1=p1rdt7305lv.1.2 bus2=p1rdm16023.1.2 switch=n enabled=y phases=2 Linecode=1P_OH_AL_2/0_Rucina_2

New Line.l(r:p1rdm16032-p1rlv15620) Units=km Length=0.0638911 bus1=p1rdm16032.1.2 bus2=p1rlv15620.1.2 switch=n enabled=y phases=2 Linecode=1P_OH_AL_4/0_Zuzara_2

New Line.l(r:p1rdm16032-p1rdt7309lv) Units=km Length=0.0177744 bus1=p1rdt7309lv.1.2 bus2=p1rdm16032.1.2 switch=n enabled=y phases=2 Linecode=1P_OH_AL_2/0_Rucina_2

New Line.l(r:p1rdm16033-p1rlv15627) Units=km Length=0.0736919 bus1=p1rdm16033.1.2 bus2=p1rlv15627.1.2 switch=n enabled=y phases=2 Linecode=1P_OH_AL_4/0_Zuzara_2

New Line.l(r:p1rdm16033-p1rdt7309lv) Units=km Length=0.0177798 bus1=p1rdt7309lv.1.2 bus2=p1rdm16033.1.2 switch=n enabled=y phases=2 Linecode=1P_OH_AL_2/0_Rucina_2

New Line.l(r:p1rdm16034-p1rlv15621) Units=km Length=0.0617633 bus1=p1rdm16034.1.2 bus2=p1rlv15621.1.2 switch=n enabled=y phases=2 Linecode=1P_OH_AL_4/0_Zuzara_2

New Line.l(r:p1rdm16034-p1rdt7310lv) Units=km Length=0.0101187 bus1=p1rdt7310lv.1.2 bus2=p1rdm16034.1.2 switch=n enabled=y phases=2 Linecode=1P_OH_AL_2/0_Rucina_2

New Line.l(r:p1rdm16035-p1rlv15631) Units=km Length=0.08119540000000001 bus1=p1rdm16035.1.2 bus2=p1rlv15631.1.2 switch=n enabled=y phases=2 Linecode=1P_OH_AL_4/0_Zuzara_2

New Line.l(r:p1rdm16035-p1rdt7310lv) Units=km Length=0.0101187 bus1=p1rdt7310lv.1.2 bus2=p1rdm16035.1.2 switch=n enabled=y phases=2 Linecode=1P_OH_AL_2/0_Rucina_2

New Line.l(r:p1rdt7315lv-p1rlv15630) Units=km Length=0.0632199 bus1=p1rdt7315lv.1.2 bus2=p1rlv15630.1.2 switch=n enabled=y phases=2 Linecode=1P_OH_AL_4/0_Zuzara_2

New Line.l(r:p1rdt7323lv-p1rlv15643) Units=km Length=0.00956804 bus1=p1rdt7323lv.1.2 bus2=p1rlv15643.1.2 switch=n enabled=y phases=2 Linecode=1P_OH_AL_2/0_Rucina_2

New Line.l(r:p1rdt7325lv-p1rlv15647) Units=km Length=0.001 bus1=p1rdt7325lv.1.2 bus2=p1rlv15647.1.2 switch=n enabled=y phases=2 Linecode=1P_OH_AL_4_Periwinkle_2

New Line.l(r:p1rdt7687lv-p1rlv16378) Units=km Length=0.060904 bus1=p1rdt7687lv.1.2 bus2=p1rlv16378.1.2 switch=n enabled=y phases=2 Linecode=1P_OH_AL_4/0_Zuzara_2

New Line.l(r:p1rdt7687lv-p1rlv16430) Units=km Length=0.0662383 bus1=p1rdt7687lv.1.2 bus2=p1rlv16430.1.2 switch=n enabled=y phases=2 Linecode=1P_OH_AL_4/0_Zuzara_2

New Line.l(r:p1rdm16842-p1rlv16415) Units=km Length=0.0083797 bus1=p1rdm16842.1.2 bus2=p1rlv16415.1.2 switch=n enabled=y phases=2 Linecode=1P_OH_AL_2/0_Rucina_2_5

New Line.l(r:p1rdm16841-p1rlv16384) Units=km Length=0.05923670000000001 bus1=p1rdm16841.1.2 bus2=p1rlv16384.1.2 switch=n enabled=y phases=2 Linecode=1P_OH_AL_4/0_Zuzara_2

New Line.l(r:p1rdm16841-p1rdm16842) Units=km Length=0.0141011 bus1=p1rdm16842.1.2 bus2=p1rdm16841.1.2 switch=n enabled=y phases=2 Linecode=1P_OH_AL_2/0_Rucina_2

New Line.l(r:p1rdm16842-p1rdt7687lv) Units=km Length=0.0160852 bus1=p1rdt7687lv.1.2 bus2=p1rdm16842.1.2 switch=n enabled=y phases=2 Linecode=1P_OH_AL_2/0_Rucina_2_5

New Line.l(r:p1rdt7692lv-p1rlv16386) Units=km Length=0.0687095 bus1=p1rdt7692lv.1.2 bus2=p1rlv16386.1.2 switch=n enabled=y phases=2 Linecode=1P_OH_AL_4/0_Zuzara_2

New Line.l(r:p1rdt7692lv-p1rlv16414) Units=km Length=0.0687095 bus1=p1rdt7692lv.1.2 bus2=p1rlv16414.1.2 switch=n enabled=y phases=2 Linecode=1P_OH_AL_4/0_Zuzara_2

New Line.l(r:p1rdm16858-p1rlv16391) Units=km Length=0.013963800000000002 bus1=p1rdm16858.1.2 bus2=p1rlv16391.1.2 switch=n enabled=y phases=2 Linecode=1P_OH_AL_2/0_Rucina_2

New Line.l(r:p1rdm16858-p1rdt7696lv) Units=km Length=0.0359939 bus1=p1rdt7696lv.1.2 bus2=p1rdm16858.1.2 switch=n enabled=y phases=2 Linecode=1P_OH_AL_4/0_Zuzara_2

New Line.l(r:p1rdm16859-p1rlv16425) Units=km Length=0.0173922 bus1=p1rdm16859.1.2 bus2=p1rlv16425.1.2 switch=n enabled=y phases=2 Linecode=1P_OH_AL_2/0_Rucina_2

New Line.l(r:p1rdm16859-p1rdt7696lv) Units=km Length=0.011986 bus1=p1rdt7696lv.1.2 bus2=p1rdm16859.1.2 switch=n enabled=y phases=2 Linecode=1P_OH_AL_2/0_Rucina_2

New Line.l(r:p1rdt7703lv-p1rlv16400) Units=km Length=0.0938393 bus1=p1rdt7703lv.1.2 bus2=p1rlv16400.1.2 switch=n enabled=y phases=2 Linecode=1P_OH_AL_4/0_Zuzara_2

New Line.l(r:p1rdt7706lv-p1rlv16403) Units=km Length=0.0168671 bus1=p1rdt7706lv.1.2 bus2=p1rlv16403.1.2 switch=n enabled=y phases=2 Linecode=1P_OH_AL_2/0_Rucina_2

New Line.l(r:p1rdt7706lv-p1rlv16409) Units=km Length=0.0337489 bus1=p1rdt7706lv.1.2 bus2=p1rlv16409.1.2 switch=n enabled=y phases=2 Linecode=1P_OH_AL_4/0_Zuzara_2

New Line.l(r:p1rdt7708lv-p1rlv16406) Units=km Length=0.001 bus1=p1rdt7708lv.1.2 bus2=p1rlv16406.1.2 switch=n enabled=y phases=2 Linecode=1P_OH_AL_4_Periwinkle_2

New Line.l(r:p1rdt7717lv-p1rlv16421) Units=km Length=0.0663793 bus1=p1rdt7717lv.1.2 bus2=p1rlv16421.1.2 switch=n enabled=y phases=2 Linecode=1P_OH_AL_4/0_Zuzara_2

New Line.l(r:p1rdt7720lv-p1rlv16428) Units=km Length=0.0824207 bus1=p1rdt7720lv.1.2 bus2=p1rlv16428.1.2 switch=n enabled=y phases=2 Linecode=1P_OH_AL_4/0_Zuzara_2

New Line.l(r:p1rdt7721lv-p1rlv16429) Units=km Length=0.001 bus1=p1rdt7721lv.1.2 bus2=p1rlv16429.1.2 switch=n enabled=y phases=2 Linecode=1P_OH_AL_4_Periwinkle_2

New Line.l(r:p1rdt7840lv-p1rlv16673) Units=km Length=0.0134948 bus1=p1rdt7840lv.1.2 bus2=p1rlv16673.1.2 switch=n enabled=y phases=2 Linecode=1P_OH_AL_2/0_Rucina_2

New Line.l(r:p1rdt7840lv-p1rlv16728) Units=km Length=0.0134948 bus1=p1rdt7840lv.1.2 bus2=p1rlv16728.1.2 switch=n enabled=y phases=2 Linecode=1P_OH_AL_2/0_Rucina_2

New Line.l(r:p1rdt7841lv-p1rlv16675) Units=km Length=0.0291493 bus1=p1rdt7841lv.1.2 bus2=p1rlv16675.1.2 switch=n enabled=y phases=2 Linecode=1P_OH_AL_4/0_Zuzara_2

New Line.l(r:p1rdt7841lv-p1rlv16676) Units=km Length=0.0188729 bus1=p1rdt7841lv.1.2 bus2=p1rlv16676.1.2 switch=n enabled=y phases=2 Linecode=1P_OH_AL_2/0_Rucina_2

New Line.l(r:p1rdt7841lv-p1rlv16683) Units=km Length=0.0479737 bus1=p1rdt7841lv.1.2 bus2=p1rlv16683.1.2 switch=n enabled=y phases=2 Linecode=1P_OH_AL_4/0_Zuzara_2

New Line.l(r:p1rdt7848lv-p1rlv16687) Units=km Length=0.001 bus1=p1rdt7848lv.1.2 bus2=p1rlv16687.1.2 switch=n enabled=y phases=2 Linecode=1P_OH_AL_4_Periwinkle_2

New Line.l(r:p1rdt7990lv-p1rlv16931) Units=km Length=0.0138015 bus1=p1rdt7990lv.1.2 bus2=p1rlv16931.1.2 switch=n enabled=y phases=2 Linecode=1P_OH_AL_2/0_Rucina_2

New Line.l(r:p1rdt7990lv-p1rlv16982) Units=km Length=0.0138015 bus1=p1rdt7990lv.1.2 bus2=p1rlv16982.1.2 switch=n enabled=y phases=2 Linecode=1P_OH_AL_2/0_Rucina_2

New Line.l(r:p1rdt8049lv-p1rlv17147) Units=km Length=0.0855404 bus1=p1rdt8049lv.1.2 bus2=p1rlv17147.1.2 switch=n enabled=y phases=2 Linecode=1P_OH_AL_4/0_Zuzara_2

New Line.l(r:p1rdt8049lv-p1rlv17214) Units=km Length=0.0718458 bus1=p1rdt8049lv.1.2 bus2=p1rlv17214.1.2 switch=n enabled=y phases=2 Linecode=1P_OH_AL_4/0_Zuzara_2

New Line.l(r:p1rdm17701-p1rlv17129) Units=km Length=0.010286 bus1=p1rdm17701.1.2 bus2=p1rlv17129.1.2 switch=n enabled=y phases=2 Linecode=1P_OH_AL_2/0_Rucina_2

New Line.l(r:p1rdm17701-p1rdt8049lv) Units=km Length=0.049567 bus1=p1rdt8049lv.1.2 bus2=p1rdm17701.1.2 switch=n enabled=y phases=2 Linecode=1P_OH_AL_4/0_Zuzara_2

New Line.l(r:p1rdt8051lv-p1rlv17131) Units=km Length=0.001 bus1=p1rdt8051lv.1.2 bus2=p1rlv17131.1.2 switch=n enabled=y phases=2 Linecode=1P_OH_AL_4_Periwinkle_2

New Line.l(r:p1rdm17721-p1rlv17138) Units=km Length=0.0198879 bus1=p1rdm17721.1.2 bus2=p1rlv17138.1.2 switch=n enabled=y phases=2 Linecode=1P_OH_AL_2/0_Rucina_2

New Line.l(r:p1rdm17721-p1rdt8054lv) Units=km Length=0.036147 bus1=p1rdt8054lv.1.2 bus2=p1rdm17721.1.2 switch=n enabled=y phases=2 Linecode=1P_OH_AL_4/0_Zuzara_2

New Line.l(r:p1rdm17722-p1rlv17204) Units=km Length=0.0311056 bus1=p1rdm17722.1.2 bus2=p1rlv17204.1.2 switch=n enabled=y phases=2 Linecode=1P_OH_AL_4/0_Zuzara_2

New Line.l(r:p1rdm17722-p1rdt8054lv) Units=km Length=0.0402501 bus1=p1rdt8054lv.1.2 bus2=p1rdm17722.1.2 switch=n enabled=y phases=2 Linecode=1P_OH_AL_4/0_Zuzara_2

New Line.l(r:p1rdt8055lv-p1rlv17139) Units=km Length=0.001 bus1=p1rdt8055lv.1.2 bus2=p1rlv17139.1.2 switch=n enabled=y phases=2 Linecode=1P_OH_AL_4_Periwinkle_2

New Line.l(r:p1rdt8059lv-p1rlv17145) Units=km Length=0.001 bus1=p1rdt8059lv.1.2 bus2=p1rlv17145.1.2 switch=n enabled=y phases=2 Linecode=1P_OH_AL_4_Periwinkle_2

New Line.l(r:p1rdt8060lv-p1rlv17148) Units=km Length=0.001 bus1=p1rdt8060lv.1.2 bus2=p1rlv17148.1.2 switch=n enabled=y phases=2 Linecode=1P_OH_AL_4_Periwinkle_2

New Line.l(r:p1rdt8067lv-p1rlv17163) Units=km Length=0.0620552 bus1=p1rdt8067lv.1.2 bus2=p1rlv17163.1.2 switch=n enabled=y phases=2 Linecode=1P_OH_AL_4/0_Zuzara_2

New Line.l(r:p1rdt8071lv-p1rlv17168) Units=km Length=0.001 bus1=p1rdt8071lv.1.2 bus2=p1rlv17168.1.2 switch=n enabled=y phases=2 Linecode=1P_OH_AL_4_Periwinkle_2

New Line.l(r:p1rdt8073lv-p1rlv17174) Units=km Length=0.001 bus1=p1rdt8073lv.1.2 bus2=p1rlv17174.1.2 switch=n enabled=y phases=2 Linecode=1P_OH_AL_4_Periwinkle_2

New Line.l(r:p1rdt8085lv-p1rlv17213) Units=km Length=0.001 bus1=p1rdt8085lv.1.2 bus2=p1rlv17213.1.2 switch=n enabled=y phases=2 Linecode=1P_OH_AL_4_Periwinkle_2

New Line.l(r:p1rdt8086lv-p1rlv17215) Units=km Length=0.0188694 bus1=p1rdt8086lv.1.2 bus2=p1rlv17215.1.2 switch=n enabled=y phases=2 Linecode=1P_OH_AL_2/0_Rucina_2

New Line.l(r:p1rdt8170lv-p1rlv17348) Units=km Length=0.001 bus1=p1rdt8170lv.1.2 bus2=p1rlv17348.1.2 switch=n enabled=y phases=2 Linecode=1P_OH_AL_4_Periwinkle_2

New Line.l(r:p1rdt8182lv-p1rlv17363) Units=km Length=0.001 bus1=p1rdt8182lv.1.2 bus2=p1rlv17363.1.2 switch=n enabled=y phases=2 Linecode=1P_OH_AL_4_Periwinkle_2

New Line.l(r:p1rdt8183lv-p1rlv17364) Units=km Length=0.04697250000000001 bus1=p1rdt8183lv.1.2 bus2=p1rlv17364.1.2 switch=n enabled=y phases=2 Linecode=1P_OH_AL_4/0_Zuzara_2

New Line.l(r:p1rdt8183lv-p1rlv17421) Units=km Length=0.04697250000000001 bus1=p1rdt8183lv.1.2 bus2=p1rlv17421.1.2 switch=n enabled=y phases=2 Linecode=1P_OH_AL_4/0_Zuzara_2

New Line.l(r:p1rdt8221lv-p1rlv17434) Units=km Length=0.001 bus1=p1rdt8221lv.1.2 bus2=p1rlv17434.1.2 switch=n enabled=y phases=2 Linecode=1P_OH_AL_4_Periwinkle_2

New Line.l(r:p1rdt8224lv-p1rlv17438) Units=km Length=0.001 bus1=p1rdt8224lv.1.2 bus2=p1rlv17438.1.2 switch=n enabled=y phases=2 Linecode=1P_OH_AL_4_Periwinkle_2

New Line.l(r:p1rdt8227lv-p1rlv17441) Units=km Length=0.001 bus1=p1rdt8227lv.1.2 bus2=p1rlv17441.1.2 switch=n enabled=y phases=2 Linecode=1P_OH_AL_4_Periwinkle_2

New Line.l(r:p1rdt8383lv-p1rlv17755) Units=km Length=0.0574309 bus1=p1rdt8383lv.1.2 bus2=p1rlv17755.1.2 switch=n enabled=y phases=2 Linecode=1P_OH_AL_4/0_Zuzara_2

New Line.l(r:p1rdt8383lv-p1rlv17761) Units=km Length=0.0574309 bus1=p1rdt8383lv.1.2 bus2=p1rlv17761.1.2 switch=n enabled=y phases=2 Linecode=1P_OH_AL_4/0_Zuzara_2

New Line.l(r:p1rdt8588lv-p1rlv18386) Units=km Length=0.023783600000000002 bus1=p1rdt8588lv.1.2 bus2=p1rlv18386.1.2 switch=n enabled=y phases=2 Linecode=1P_OH_AL_2/0_Rucina_2

New Line.l(r:p1rdt8588lv-p1rlv18508) Units=km Length=0.023783600000000002 bus1=p1rdt8588lv.1.2 bus2=p1rlv18508.1.2 switch=n enabled=y phases=2 Linecode=1P_OH_AL_2/0_Rucina_2

New Line.l(r:p1rdt8592lv-p1rlv18391) Units=km Length=0.01276 bus1=p1rdt8592lv.1.2 bus2=p1rlv18391.1.2 switch=n enabled=y phases=2 Linecode=1P_OH_AL_2/0_Rucina_2

New Line.l(r:p1rdt8592lv-p1rlv18409) Units=km Length=0.0122402 bus1=p1rdt8592lv.1.2 bus2=p1rlv18409.1.2 switch=n enabled=y phases=2 Linecode=1P_OH_AL_2/0_Rucina_2

New Line.l(r:p1rdt8592lv-p1rlv18448) Units=km Length=0.001 bus1=p1rdt8592lv.1.2 bus2=p1rlv18448.1.2 switch=n enabled=y phases=2 Linecode=1P_OH_AL_4_Periwinkle_2

New Line.l(r:p1rdt8593lv-p1rlv18393) Units=km Length=0.001 bus1=p1rdt8593lv.1.2 bus2=p1rlv18393.1.2 switch=n enabled=y phases=2 Linecode=1P_OH_AL_4_Periwinkle_2

New Line.l(r:p1rdt8607lv-p1rlv18423) Units=km Length=0.001 bus1=p1rdt8607lv.1.2 bus2=p1rlv18423.1.2 switch=n enabled=y phases=2 Linecode=1P_OH_AL_4_Periwinkle_2

New Line.l(r:p1rdt8613lv-p1rlv18441) Units=km Length=0.0847525 bus1=p1rdt8613lv.1.2 bus2=p1rlv18441.1.2 switch=n enabled=y phases=2 Linecode=1P_OH_AL_4/0_Zuzara_2

New Line.l(r:p1rdt8614lv-p1rlv18442) Units=km Length=0.001 bus1=p1rdt8614lv.1.2 bus2=p1rlv18442.1.2 switch=n enabled=y phases=2 Linecode=1P_OH_AL_4_Periwinkle_2

New Line.l(r:p1rdt8618lv-p1rlv18468) Units=km Length=0.0652249 bus1=p1rdt8618lv.1.2 bus2=p1rlv18468.1.2 switch=n enabled=y phases=2 Linecode=1P_OH_AL_4/0_Zuzara_2

New Line.l(r:p1rdt8618lv-p1rlv18484) Units=km Length=0.0652249 bus1=p1rdt8618lv.1.2 bus2=p1rlv18484.1.2 switch=n enabled=y phases=2 Linecode=1P_OH_AL_4/0_Zuzara_2

New Line.l(r:p1rdt8619lv-p1rlv18472) Units=km Length=0.001 bus1=p1rdt8619lv.1.2 bus2=p1rlv18472.1.2 switch=n enabled=y phases=2 Linecode=1P_OH_AL_4_Periwinkle_2

New Line.l(r:p1rdt8620lv-p1rlv18486) Units=km Length=0.001 bus1=p1rdt8620lv.1.2 bus2=p1rlv18486.1.2 switch=n enabled=y phases=2 Linecode=1P_OH_AL_4_Periwinkle_2

New Line.l(r:p1rdt8621lv-p1rlv18503) Units=km Length=0.0539937 bus1=p1rdt8621lv.1.2 bus2=p1rlv18503.1.2 switch=n enabled=y phases=2 Linecode=1P_OH_AL_4/0_Zuzara_2

New Line.l(r:p1rdt9095lv-p1rlv19705) Units=km Length=0.0429388 bus1=p1rdt9095lv.1.2 bus2=p1rlv19705.1.2 switch=n enabled=y phases=2 Linecode=1P_OH_AL_4/0_Zuzara_2

New Line.l(r:p1rdt9097lv-p1rlv19707) Units=km Length=0.0874066 bus1=p1rdt9097lv.1.2 bus2=p1rlv19707.1.2 switch=n enabled=y phases=2 Linecode=1P_OH_AL_4/0_Zuzara_2

New Line.l(r:p1rdt9098lv-p1rlv19708) Units=km Length=0.0904522 bus1=p1rdt9098lv.1.2 bus2=p1rlv19708.1.2 switch=n enabled=y phases=2 Linecode=1P_OH_AL_4/0_Zuzara_2

New Line.l(r:p1rdt9098lv-p1rlv19764) Units=km Length=0.07512990000000001 bus1=p1rdt9098lv.1.2 bus2=p1rlv19764.1.2 switch=n enabled=y phases=2 Linecode=1P_OH_AL_4/0_Zuzara_2

New Line.l(r:p1rdm20245-p1rlv19712) Units=km Length=0.00711425 bus1=p1rdm20245.1.2 bus2=p1rlv19712.1.2 switch=n enabled=y phases=2 Linecode=1P_OH_AL_2/0_Rucina_2

New Line.l(r:p1rdm20245-p1rdt9098lv) Units=km Length=0.0175744 bus1=p1rdt9098lv.1.2 bus2=p1rdm20245.1.2 switch=n enabled=y phases=2 Linecode=1P_OH_AL_2/0_Rucina_2

New Line.l(r:p1rdm20247-p1rlv19709) Units=km Length=0.0197553 bus1=p1rdm20247.1.2 bus2=p1rlv19709.1.2 switch=n enabled=y phases=2 Linecode=1P_OH_AL_2/0_Rucina_2

New Line.l(r:p1rdm20247-p1rdt9099lv) Units=km Length=0.0154871 bus1=p1rdt9099lv.1.2 bus2=p1rdm20247.1.2 switch=n enabled=y phases=2 Linecode=1P_OH_AL_2/0_Rucina_2

New Line.l(r:p1rdm20248-p1rlv19780) Units=km Length=0.0379357 bus1=p1rdm20248.1.2 bus2=p1rlv19780.1.2 switch=n enabled=y phases=2 Linecode=1P_OH_AL_4/0_Zuzara_2

New Line.l(r:p1rdm20248-p1rdt9099lv) Units=km Length=0.0193522 bus1=p1rdt9099lv.1.2 bus2=p1rdm20248.1.2 switch=n enabled=y phases=2 Linecode=1P_OH_AL_2/0_Rucina_2

New Line.l(r:p1rdt9101lv-p1rlv19715) Units=km Length=0.0185609 bus1=p1rdt9101lv.1.2 bus2=p1rlv19715.1.2 switch=n enabled=y phases=2 Linecode=1P_OH_AL_2/0_Rucina_2

New Line.l(r:p1rdt9105lv-p1rlv19719) Units=km Length=0.030952100000000003 bus1=p1rdt9105lv.1.2 bus2=p1rlv19719.1.2 switch=n enabled=y phases=2 Linecode=1P_OH_AL_4/0_Zuzara_2

New Line.l(r:p1rdt9106lv-p1rlv19721) Units=km Length=0.001 bus1=p1rdt9106lv.1.2 bus2=p1rlv19721.1.2 switch=n enabled=y phases=2 Linecode=1P_OH_AL_4_Periwinkle_2

New Line.l(r:p1rdt9107lv-p1rlv19722) Units=km Length=0.0319843 bus1=p1rdt9107lv.1.2 bus2=p1rlv19722.1.2 switch=n enabled=y phases=2 Linecode=1P_OH_AL_4/0_Zuzara_2

New Line.l(r:p1rdt9107lv-p1rlv19781) Units=km Length=0.0312925 bus1=p1rdt9107lv.1.2 bus2=p1rlv19781.1.2 switch=n enabled=y phases=2 Linecode=1P_OH_AL_4/0_Zuzara_2

New Line.l(r:p1rdt9109lv-p1rlv19724) Units=km Length=0.0408597 bus1=p1rdt9109lv.1.2 bus2=p1rlv19724.1.2 switch=n enabled=y phases=2 Linecode=1P_OH_AL_4/0_Zuzara_2

New Line.l(r:p1rdm20279-p1rlv19744) Units=km Length=0.024154900000000003 bus1=p1rdm20279.1.2 bus2=p1rlv19744.1.2 switch=n enabled=y phases=2 Linecode=1P_OH_AL_2/0_Rucina_2

New Line.l(r:p1rdm20279-p1rdt9109lv) Units=km Length=0.0602178 bus1=p1rdt9109lv.1.2 bus2=p1rdm20279.1.2 switch=n enabled=y phases=2 Linecode=1P_OH_AL_4/0_Zuzara_2

New Line.l(r:p1rdm20280-p1rlv22002) Units=km Length=0.096891 bus1=p1rdm20280.1.2 bus2=p1rlv22002.1.2 switch=n enabled=y phases=2 Linecode=1P_OH_AL_4/0_Zuzara_2

New Line.l(r:p1rdm20278-p1rlv19734) Units=km Length=0.0289139 bus1=p1rdm20278.1.2 bus2=p1rlv19734.1.2 switch=n enabled=y phases=2 Linecode=1P_OH_AL_4/0_Zuzara_2

New Line.l(r:p1rdm20278-p1rdm20280) Units=km Length=0.011751600000000001 bus1=p1rdm20280.1.2 bus2=p1rdm20278.1.2 switch=n enabled=y phases=2 Linecode=1P_OH_AL_2/0_Rucina_2

New Line.l(r:p1rdm20280-p1rdt9109lv) Units=km Length=0.0168383 bus1=p1rdt9109lv.1.2 bus2=p1rdm20280.1.2 switch=n enabled=y phases=2 Linecode=1P_OH_AL_2/0_Rucina_2

New Line.l(r:p1rdt9111lv-p1rlv19727) Units=km Length=0.0704322 bus1=p1rdt9111lv.1.2 bus2=p1rlv19727.1.2 switch=n enabled=y phases=2 Linecode=1P_OH_AL_4/0_Zuzara_2

New Line.l(r:p1rdt9112lv-p1rlv19728) Units=km Length=0.0613841 bus1=p1rdt9112lv.1.2 bus2=p1rlv19728.1.2 switch=n enabled=y phases=2 Linecode=1P_OH_AL_4/0_Zuzara_2

New Line.l(r:p1rdt9117lv-p1rlv19735) Units=km Length=0.0671855 bus1=p1rdt9117lv.1.2 bus2=p1rlv19735.1.2 switch=n enabled=y phases=2 Linecode=1P_OH_AL_4/0_Zuzara_2

New Line.l(r:p1rdt9122lv-p1rlv19742) Units=km Length=0.0158027 bus1=p1rdt9122lv.1.2 bus2=p1rlv19742.1.2 switch=n enabled=y phases=2 Linecode=1P_OH_AL_2/0_Rucina_2

New Line.l(r:p1rdt9124lv-p1rlv19745) Units=km Length=0.001 bus1=p1rdt9124lv.1.2 bus2=p1rlv19745.1.2 switch=n enabled=y phases=2 Linecode=1P_OH_AL_4_Periwinkle_2

New Line.l(r:p1rdt9127lv-p1rlv19748) Units=km Length=0.001 bus1=p1rdt9127lv.1.2 bus2=p1rlv19748.1.2 switch=n enabled=y phases=2 Linecode=1P_OH_AL_4_Periwinkle_2

New Line.l(r:p1rdt9128lv-p1rlv19749) Units=km Length=0.0587133 bus1=p1rdt9128lv.1.2 bus2=p1rlv19749.1.2 switch=n enabled=y phases=2 Linecode=1P_OH_AL_4/0_Zuzara_2

New Line.l(r:p1rdt9131lv-p1rlv19757) Units=km Length=0.001 bus1=p1rdt9131lv.1.2 bus2=p1rlv19757.1.2 switch=n enabled=y phases=2 Linecode=1P_OH_AL_4_Periwinkle_2

New Line.l(r:p1rdm20314-p1rlv19758) Units=km Length=0.0374222 bus1=p1rdm20314.1.2 bus2=p1rlv19758.1.2 switch=n enabled=y phases=2 Linecode=1P_OH_AL_4/0_Zuzara_2

New Line.l(r:p1rdm20314-p1rdt9132lv) Units=km Length=0.0104673 bus1=p1rdt9132lv.1.2 bus2=p1rdm20314.1.2 switch=n enabled=y phases=2 Linecode=1P_OH_AL_2/0_Rucina_2

New Line.l(r:p1rdm20315-p1rlv19775) Units=km Length=0.0178304 bus1=p1rdm20315.1.2 bus2=p1rlv19775.1.2 switch=n enabled=y phases=2 Linecode=1P_OH_AL_2/0_Rucina_2

New Line.l(r:p1rdm20315-p1rdt9132lv) Units=km Length=0.0177018 bus1=p1rdt9132lv.1.2 bus2=p1rdm20315.1.2 switch=n enabled=y phases=2 Linecode=1P_OH_AL_2/0_Rucina_2

New Line.l(r:p1rdt9134lv-p1rlv19762) Units=km Length=0.0682931 bus1=p1rdt9134lv.1.2 bus2=p1rlv19762.1.2 switch=n enabled=y phases=2 Linecode=1P_OH_AL_4/0_Zuzara_2

New Line.l(r:p1rdm20320-p1rlv19813) Units=km Length=0.0461924 bus1=p1rdm20320.1.2 bus2=p1rlv19813.1.2 switch=n enabled=y phases=2 Linecode=1P_OH_AL_4/0_Zuzara_2

New Line.l(r:p1rdm20320-p1rdt9134lv) Units=km Length=0.00748844 bus1=p1rdt9134lv.1.2 bus2=p1rdm20320.1.2 switch=n enabled=y phases=2 Linecode=1P_OH_AL_2/0_Rucina_2

New Line.l(r:p1rdt9137lv-p1rlv19766) Units=km Length=0.001 bus1=p1rdt9137lv.1.2 bus2=p1rlv19766.1.2 switch=n enabled=y phases=2 Linecode=1P_OH_AL_4_Periwinkle_2

New Line.l(r:p1rdt9138lv-p1rlv19767) Units=km Length=0.11572 bus1=p1rdt9138lv.1.2 bus2=p1rlv19767.1.2 switch=n enabled=y phases=2 Linecode=1P_OH_AL_4/0_Zuzara_2

New Line.l(r:p1rdt9138lv-p1rlv19809) Units=km Length=0.0797023 bus1=p1rdt9138lv.1.2 bus2=p1rlv19809.1.2 switch=n enabled=y phases=2 Linecode=1P_OH_AL_4/0_Zuzara_2

New Line.l(r:p1rdt9139lv-p1rlv24868) Units=km Length=0.0367676 bus1=p1rdt9139lv.1.2 bus2=p1rlv24868.1.2 switch=n enabled=y phases=2 Linecode=1P_OH_AL_4/0_Zuzara_2

New Line.l(r:p1rdt9139lv-p1rlv24887) Units=km Length=0.0374884 bus1=p1rdt9139lv.1.2 bus2=p1rlv24887.1.2 switch=n enabled=y phases=2 Linecode=1P_OH_AL_4/0_Zuzara_2

New Line.l(r:p1rdt9139lv-p1rlv24891) Units=km Length=0.00981334 bus1=p1rdt9139lv.1.2 bus2=p1rlv24891.1.2 switch=n enabled=y phases=2 Linecode=1P_OH_AL_2/0_Rucina_2

New Line.l(r:p1rdt9139lv-p1rlv24895) Units=km Length=0.020939200000000005 bus1=p1rdt9139lv.1.2 bus2=p1rlv24895.1.2 switch=n enabled=y phases=2 Linecode=1P_OH_AL_2/0_Rucina_2

New Line.l(r:p1rdm20326-p1rlv19768) Units=km Length=0.0426255 bus1=p1rdm20326.1.2 bus2=p1rlv19768.1.2 switch=n enabled=y phases=2 Linecode=1P_OH_AL_4/0_Zuzara_2

New Line.l(r:p1rdm20328-p1rlv24886) Units=km Length=0.0153189 bus1=p1rdm20328.1.2 bus2=p1rlv24886.1.2 switch=n enabled=y phases=2 Linecode=1P_OH_AL_2/0_Rucina_2

New Line.l(r:p1rdm20326-p1rdm20328) Units=km Length=0.0198894 bus1=p1rdm20326.1.2 bus2=p1rdm20328.1.2 switch=n enabled=y phases=2 Linecode=1P_OH_AL_2/0_Rucina_2

New Line.l(r:p1rdm20326-p1rdt9139lv) Units=km Length=0.0337724 bus1=p1rdt9139lv.1.2 bus2=p1rdm20326.1.2 switch=n enabled=y phases=2 Linecode=1P_OH_AL_4/0_Zuzara_2

New Line.l(r:p1rdt9141lv-p1rlv19772) Units=km Length=0.0500152 bus1=p1rdt9141lv.1.2 bus2=p1rlv19772.1.2 switch=n enabled=y phases=2 Linecode=1P_OH_AL_4/0_Zuzara_2

New Line.l(r:p1rdt9144lv-p1rlv19778) Units=km Length=0.030362900000000005 bus1=p1rdt9144lv.1.2 bus2=p1rlv19778.1.2 switch=n enabled=y phases=2 Linecode=1P_OH_AL_4/0_Zuzara_2

New Line.l(r:p1rdt9144lv-p1rlv19802) Units=km Length=0.0643274 bus1=p1rdt9144lv.1.2 bus2=p1rlv19802.1.2 switch=n enabled=y phases=2 Linecode=1P_OH_AL_4/0_Zuzara_2

New Line.l(r:p1rdt9145lv-p1rlv19783) Units=km Length=0.0753278 bus1=p1rdt9145lv.1.2 bus2=p1rlv19783.1.2 switch=n enabled=y phases=2 Linecode=1P_OH_AL_4/0_Zuzara_2

New Line.l(r:p1rdm20340-p1rlv19787) Units=km Length=0.0304038 bus1=p1rdm20340.1.2 bus2=p1rlv19787.1.2 switch=n enabled=y phases=2 Linecode=1P_OH_AL_4/0_Zuzara_2

New Line.l(r:p1rdm20340-p1rdt9147lv) Units=km Length=0.0692961 bus1=p1rdt9147lv.1.2 bus2=p1rdm20340.1.2 switch=n enabled=y phases=2 Linecode=1P_OH_AL_4/0_Zuzara_2

New Line.l(r:p1rdm20341-p1rlv19823) Units=km Length=0.00827519 bus1=p1rdm20341.1.2 bus2=p1rlv19823.1.2 switch=n enabled=y phases=2 Linecode=1P_OH_AL_2/0_Rucina_2

New Line.l(r:p1rdm20342-p1rlv24903) Units=km Length=0.0170698 bus1=p1rdm20342.1.2 bus2=p1rlv24903.1.2 switch=n enabled=y phases=2 Linecode=1P_OH_AL_2/0_Rucina_2

New Line.l(r:p1rdm20341-p1rdm20342) Units=km Length=0.0145555 bus1=p1rdm20341.1.2 bus2=p1rdm20342.1.2 switch=n enabled=y phases=2 Linecode=1P_OH_AL_2/0_Rucina_2

New Line.l(r:p1rdm20341-p1rdt9147lv) Units=km Length=0.0181405 bus1=p1rdt9147lv.1.2 bus2=p1rdm20341.1.2 switch=n enabled=y phases=2 Linecode=1P_OH_AL_2/0_Rucina_2

New Line.l(r:p1rdt9149lv-p1rlv19791) Units=km Length=0.0307836 bus1=p1rdt9149lv.1.2 bus2=p1rlv19791.1.2 switch=n enabled=y phases=2 Linecode=1P_OH_AL_4/0_Zuzara_2

New Line.l(r:p1rdt9152lv-p1rlv19794) Units=km Length=0.0453741 bus1=p1rdt9152lv.1.2 bus2=p1rlv19794.1.2 switch=n enabled=y phases=2 Linecode=1P_OH_AL_4/0_Zuzara_2

New Line.l(r:p1rdt9158lv-p1rlv19805) Units=km Length=0.0412833 bus1=p1rdt9158lv.1.2 bus2=p1rlv19805.1.2 switch=n enabled=y phases=2 Linecode=1P_OH_AL_4/0_Zuzara_2

New Line.l(r:p1rdt9160lv-p1rlv19807) Units=km Length=0.001 bus1=p1rdt9160lv.1.2 bus2=p1rlv19807.1.2 switch=n enabled=y phases=2 Linecode=1P_OH_AL_4_Periwinkle_2

New Line.l(r:p1rdt9161lv-p1rlv19810) Units=km Length=0.007601290000000001 bus1=p1rdt9161lv.1.2 bus2=p1rlv19810.1.2 switch=n enabled=y phases=2 Linecode=1P_OH_AL_2/0_Rucina_2

New Line.l(r:p1rdt9347lv-p1rlv20213) Units=km Length=0.0379451 bus1=p1rdt9347lv.1.2 bus2=p1rlv20213.1.2 switch=n enabled=y phases=2 Linecode=1P_OH_AL_4/0_Zuzara_2

New Line.l(r:p1rdt9414lv-p1rlv20334) Units=km Length=0.0149444 bus1=p1rdt9414lv.1.2 bus2=p1rlv20334.1.2 switch=n enabled=y phases=2 Linecode=1P_OH_AL_2/0_Rucina_2

New Line.l(r:p1rdt9414lv-p1rlv20348) Units=km Length=0.0149444 bus1=p1rdt9414lv.1.2 bus2=p1rlv20348.1.2 switch=n enabled=y phases=2 Linecode=1P_OH_AL_2/0_Rucina_2

New Line.l(r:p1rdt9415lv-p1rlv20335) Units=km Length=0.0621477 bus1=p1rdt9415lv.1.2 bus2=p1rlv20335.1.2 switch=n enabled=y phases=2 Linecode=1P_OH_AL_4/0_Zuzara_2

New Line.l(r:p1rdt9415lv-p1rlv20341) Units=km Length=0.0621477 bus1=p1rdt9415lv.1.2 bus2=p1rlv20341.1.2 switch=n enabled=y phases=2 Linecode=1P_OH_AL_4/0_Zuzara_2

New Line.l(r:p1rdt9416lv-p1rlv20336) Units=km Length=0.001 bus1=p1rdt9416lv.1.2 bus2=p1rlv20336.1.2 switch=n enabled=y phases=2 Linecode=1P_OH_AL_4_Periwinkle_2

New Line.l(r:p1rdt9417lv-p1rlv20338) Units=km Length=0.001 bus1=p1rdt9417lv.1.2 bus2=p1rlv20338.1.2 switch=n enabled=y phases=2 Linecode=1P_OH_AL_4_Periwinkle_2

New Line.l(r:p1rdt9597lv-p1rlv20757) Units=km Length=0.011321100000000002 bus1=p1rdt9597lv.1.2 bus2=p1rlv20757.1.2 switch=n enabled=y phases=2 Linecode=1P_OH_AL_2/0_Rucina_2

New Line.l(r:p1rdt9624lv-p1rlv20792) Units=km Length=0.001 bus1=p1rdt9624lv.1.2 bus2=p1rlv20792.1.2 switch=n enabled=y phases=2 Linecode=1P_OH_AL_4_Periwinkle_2

New Line.l(r:p1rdt9626lv-p1rlv20798) Units=km Length=0.001 bus1=p1rdt9626lv.1.2 bus2=p1rlv20798.1.2 switch=n enabled=y phases=2 Linecode=1P_OH_AL_4_Periwinkle_2

New Line.l(r:p1rdt9637lv-p1rlv20816) Units=km Length=0.001 bus1=p1rdt9637lv.1.2 bus2=p1rlv20816.1.2 switch=n enabled=y phases=2 Linecode=1P_OH_AL_4_Periwinkle_2

New Line.l(r:p1rdt10116lv-p1rlv22003) Units=km Length=0.0426597 bus1=p1rdt10116lv.1.2 bus2=p1rlv22003.1.2 switch=n enabled=y phases=2 Linecode=1P_OH_AL_4/0_Zuzara_2

New Line.l(r:p1rdt10118lv-p1rlv34444) Units=km Length=0.082478 bus1=p1rdt10118lv.1.2 bus2=p1rlv34444.1.2 switch=n enabled=y phases=2 Linecode=1P_OH_AL_4/0_Zuzara_2

New Line.l(r:p1rdm22466-p1rlv22005) Units=km Length=0.0366229 bus1=p1rdm22466.1.2 bus2=p1rlv22005.1.2 switch=n enabled=y phases=2 Linecode=1P_OH_AL_4/0_Zuzara_2

New Line.l(r:p1rdm22466-p1rdt10118lv) Units=km Length=0.018301 bus1=p1rdt10118lv.1.2 bus2=p1rdm22466.1.2 switch=n enabled=y phases=2 Linecode=1P_OH_AL_2/0_Rucina_2

New Line.l(r:p1rdm22467-p1rlv34348) Units=km Length=0.10244 bus1=p1rdm22467.1.2 bus2=p1rlv34348.1.2 switch=n enabled=y phases=2 Linecode=1P_OH_AL_4/0_Zuzara_2

New Line.l(r:p1rdm22467-p1rdt10118lv) Units=km Length=0.021104000000000005 bus1=p1rdt10118lv.1.2 bus2=p1rdm22467.1.2 switch=n enabled=y phases=2 Linecode=1P_OH_AL_2/0_Rucina_2

New Line.l(r:p1rdt10130lv-p1rlv22021) Units=km Length=0.03863900000000001 bus1=p1rdt10130lv.1.2 bus2=p1rlv22021.1.2 switch=n enabled=y phases=2 Linecode=1P_OH_AL_4/0_Zuzara_2

New Line.l(r:p1rdt10135lv-p1rlv22060) Units=km Length=0.0556305 bus1=p1rdt10135lv.1.2 bus2=p1rlv22060.1.2 switch=n enabled=y phases=2 Linecode=1P_OH_AL_4/0_Zuzara_2

New Line.l(r:p1rdm22512-p1rlv22031) Units=km Length=0.0751573 bus1=p1rdm22512.1.2 bus2=p1rlv22031.1.2 switch=n enabled=y phases=2 Linecode=1P_OH_AL_4/0_Zuzara_2

New Line.l(r:p1rdm22512-p1rlv22053) Units=km Length=0.0424962 bus1=p1rdm22512.1.2 bus2=p1rlv22053.1.2 switch=n enabled=y phases=2 Linecode=1P_OH_AL_4/0_Zuzara_2

New Line.l(r:p1rdm22512-p1rdt10135lv) Units=km Length=0.0194903 bus1=p1rdt10135lv.1.2 bus2=p1rdm22512.1.2 switch=n enabled=y phases=2 Linecode=1P_OH_AL_2/0_Rucina_2

New Line.l(r:p1rdm22513-p1rlv22048) Units=km Length=0.0880738 bus1=p1rdm22513.1.2 bus2=p1rlv22048.1.2 switch=n enabled=y phases=2 Linecode=1P_OH_AL_4/0_Zuzara_2

New Line.l(r:p1rdm22513-p1rdt10135lv) Units=km Length=0.0256255 bus1=p1rdt10135lv.1.2 bus2=p1rdm22513.1.2 switch=n enabled=y phases=2 Linecode=1P_OH_AL_2/0_Rucina_2

New Line.l(r:p1rdt10136lv-p1rlv22035) Units=km Length=0.00914644 bus1=p1rdt10136lv.1.2 bus2=p1rlv22035.1.2 switch=n enabled=y phases=2 Linecode=1P_OH_AL_2/0_Rucina_2

New Line.l(r:p1rdt10137lv-p1rlv22036) Units=km Length=0.0174294 bus1=p1rdt10137lv.1.2 bus2=p1rlv22036.1.2 switch=n enabled=y phases=2 Linecode=1P_OH_AL_2/0_Rucina_2

New Line.l(r:p1rdt10139lv-p1rlv22038) Units=km Length=0.001 bus1=p1rdt10139lv.1.2 bus2=p1rlv22038.1.2 switch=n enabled=y phases=2 Linecode=1P_OH_AL_4_Periwinkle_2

New Line.l(r:p1rdm22525-p1rlv22045) Units=km Length=0.057621 bus1=p1rdm22525.1.2 bus2=p1rlv22045.1.2 switch=n enabled=y phases=2 Linecode=1P_OH_AL_4/0_Zuzara_2

New Line.l(r:p1rdm22525-p1rdt10143lv) Units=km Length=0.0127595 bus1=p1rdt10143lv.1.2 bus2=p1rdm22525.1.2 switch=n enabled=y phases=2 Linecode=1P_OH_AL_2/0_Rucina_2

New Line.l(r:p1rdm22526-p1rlv22062) Units=km Length=0.043088 bus1=p1rdm22526.1.2 bus2=p1rlv22062.1.2 switch=n enabled=y phases=2 Linecode=1P_OH_AL_4/0_Zuzara_2

New Line.l(r:p1rdm22526-p1rdt10143lv) Units=km Length=0.0217378 bus1=p1rdt10143lv.1.2 bus2=p1rdm22526.1.2 switch=n enabled=y phases=2 Linecode=1P_OH_AL_2/0_Rucina_2

New Line.l(r:p1rdt10146lv-p1rlv22050) Units=km Length=0.05844470000000001 bus1=p1rdt10146lv.1.2 bus2=p1rlv22050.1.2 switch=n enabled=y phases=2 Linecode=1P_OH_AL_4/0_Zuzara_2

New Line.l(r:p1rdt10148lv-p1rlv22054) Units=km Length=0.0511657 bus1=p1rdt10148lv.1.2 bus2=p1rlv22054.1.2 switch=n enabled=y phases=2 Linecode=1P_OH_AL_4/0_Zuzara_2

New Line.l(r:p1rdt10150lv-p1rlv22056) Units=km Length=0.0743367 bus1=p1rdt10150lv.1.2 bus2=p1rlv22056.1.2 switch=n enabled=y phases=2 Linecode=1P_OH_AL_4/0_Zuzara_2

New Line.l(r:p1rdt10153lv-p1rlv22064) Units=km Length=0.001 bus1=p1rdt10153lv.1.2 bus2=p1rlv22064.1.2 switch=n enabled=y phases=2 Linecode=1P_OH_AL_4_Periwinkle_2

New Line.l(r:p1rdt10154lv-p1rlv22070) Units=km Length=0.001 bus1=p1rdt10154lv.1.2 bus2=p1rlv22070.1.2 switch=n enabled=y phases=2 Linecode=1P_OH_AL_4_Periwinkle_2

New Line.l(r:p1rdt10728lv-p1rlv23320) Units=km Length=0.001 bus1=p1rdt10728lv.1.2 bus2=p1rlv23320.1.2 switch=n enabled=y phases=2 Linecode=1P_OH_AL_4_Periwinkle_2

New Line.l(r:p1rdt11268lv-p1rlv24857) Units=km Length=0.0327043 bus1=p1rdt11268lv.1.2 bus2=p1rlv24857.1.2 switch=n enabled=y phases=2 Linecode=1P_OH_AL_4/0_Zuzara_2

New Line.l(r:p1rdt11268lv-p1rlv24869) Units=km Length=0.0442527 bus1=p1rdt11268lv.1.2 bus2=p1rlv24869.1.2 switch=n enabled=y phases=2 Linecode=1P_OH_AL_4/0_Zuzara_2

New Line.l(r:p1rdt11271lv-p1rlv24861) Units=km Length=0.001 bus1=p1rdt11271lv.1.2 bus2=p1rlv24861.1.2 switch=n enabled=y phases=2 Linecode=1P_OH_AL_4_Periwinkle_2

New Line.l(r:p1rdm25473-p1rlv24867) Units=km Length=0.0116373 bus1=p1rdm25473.1.2 bus2=p1rlv24867.1.2 switch=n enabled=y phases=2 Linecode=1P_OH_AL_2/0_Rucina_2

New Line.l(r:p1rdm25473-p1rdt11275lv) Units=km Length=0.0105438 bus1=p1rdt11275lv.1.2 bus2=p1rdm25473.1.2 switch=n enabled=y phases=2 Linecode=1P_OH_AL_2/0_Rucina_2

New Line.l(r:p1rdm25474-p1rlv24884) Units=km Length=0.00890457 bus1=p1rdm25474.1.2 bus2=p1rlv24884.1.2 switch=n enabled=y phases=2 Linecode=1P_OH_AL_2/0_Rucina_2

New Line.l(r:p1rdm25474-p1rdt11275lv) Units=km Length=0.0229483 bus1=p1rdt11275lv.1.2 bus2=p1rdm25474.1.2 switch=n enabled=y phases=2 Linecode=1P_OH_AL_2/0_Rucina_2

New Line.l(r:p1rdt11276lv-p1rlv24871) Units=km Length=0.0182017 bus1=p1rdt11276lv.1.2 bus2=p1rlv24871.1.2 switch=n enabled=y phases=2 Linecode=1P_OH_AL_2/0_Rucina_2

New Line.l(r:p1rdt11276lv-p1rlv24876) Units=km Length=0.0182017 bus1=p1rdt11276lv.1.2 bus2=p1rlv24876.1.2 switch=n enabled=y phases=2 Linecode=1P_OH_AL_2/0_Rucina_2

New Line.l(r:p1rdt11709lv-p1rlv25930) Units=km Length=0.05787840000000001 bus1=p1rdt11709lv.1.2 bus2=p1rlv25930.1.2 switch=n enabled=y phases=2 Linecode=1P_OH_AL_4/0_Zuzara_2

New Line.l(r:p1rdt11709lv-p1rlv25963) Units=km Length=0.05787840000000001 bus1=p1rdt11709lv.1.2 bus2=p1rlv25963.1.2 switch=n enabled=y phases=2 Linecode=1P_OH_AL_4/0_Zuzara_2

New Line.l(r:p1rdt11713lv-p1rlv25936) Units=km Length=0.001 bus1=p1rdt11713lv.1.2 bus2=p1rlv25936.1.2 switch=n enabled=y phases=2 Linecode=1P_OH_AL_4_Periwinkle_2

New Line.l(r:p1rdt11718lv-p1rlv25946) Units=km Length=0.001 bus1=p1rdt11718lv.1.2 bus2=p1rlv25946.1.2 switch=n enabled=y phases=2 Linecode=1P_OH_AL_4_Periwinkle_2

New Line.l(r:p1rdt12105lv-p1rlv26919) Units=km Length=0.001 bus1=p1rdt12105lv.1.2 bus2=p1rlv26919.1.2 switch=n enabled=y phases=2 Linecode=1P_OH_AL_4_Periwinkle_2

New Line.l(r:p1rdt12112lv-p1rlv26926) Units=km Length=0.00898363 bus1=p1rdt12112lv.1.2 bus2=p1rlv26926.1.2 switch=n enabled=y phases=2 Linecode=1P_OH_AL_2/0_Rucina_2

New Line.l(r:p1rdt12112lv-p1rlv27054) Units=km Length=0.030642200000000005 bus1=p1rdt12112lv.1.2 bus2=p1rlv27054.1.2 switch=n enabled=y phases=2 Linecode=1P_OH_AL_4/0_Zuzara_2

New Line.l(r:p1rdt12112lv-p1rlv34377) Units=km Length=0.0248197 bus1=p1rdt12112lv.1.2 bus2=p1rlv34377.1.2 switch=n enabled=y phases=2 Linecode=1P_OH_AL_2/0_Rucina_2

New Line.l(r:p1rdm27533-p1rlv26965) Units=km Length=0.130145 bus1=p1rdm27533.1.2 bus2=p1rlv26965.1.2 switch=n enabled=y phases=2 Linecode=1P_OH_AL_4/0_Zuzara_2

New Line.l(r:p1rdm27533-p1rdt12137lv) Units=km Length=0.0168474 bus1=p1rdt12137lv.1.2 bus2=p1rdm27533.1.2 switch=n enabled=y phases=2 Linecode=1P_OH_AL_2/0_Rucina_2

New Line.l(r:p1rdm27534-p1rlv26980) Units=km Length=0.014192100000000001 bus1=p1rdm27534.1.2 bus2=p1rlv26980.1.2 switch=n enabled=y phases=2 Linecode=1P_OH_AL_2/0_Rucina_2

New Line.l(r:p1rdm27534-p1rdt12137lv) Units=km Length=0.0168474 bus1=p1rdt12137lv.1.2 bus2=p1rdm27534.1.2 switch=n enabled=y phases=2 Linecode=1P_OH_AL_2/0_Rucina_2

New Line.l(r:p1rdt12151lv-p1rlv27002) Units=km Length=0.0259827 bus1=p1rdt12151lv.1.2 bus2=p1rlv27002.1.2 switch=n enabled=y phases=2 Linecode=1P_OH_AL_2/0_Rucina_2

New Line.l(r:p1rdt12151lv-p1rlv27007) Units=km Length=0.0259827 bus1=p1rdt12151lv.1.2 bus2=p1rlv27007.1.2 switch=n enabled=y phases=2 Linecode=1P_OH_AL_2/0_Rucina_2

New Line.l(r:p1rdt12157lv-p1rlv27018) Units=km Length=0.013315900000000002 bus1=p1rdt12157lv.1.2 bus2=p1rlv27018.1.2 switch=n enabled=y phases=2 Linecode=1P_OH_AL_2/0_Rucina_2

New Line.l(r:p1rdt12157lv-p1rlv27048) Units=km Length=0.013315900000000002 bus1=p1rdt12157lv.1.2 bus2=p1rlv27048.1.2 switch=n enabled=y phases=2 Linecode=1P_OH_AL_2/0_Rucina_2

New Line.l(r:p1rdm27578-p1rlv27029) Units=km Length=0.0134808 bus1=p1rdm27578.1.2 bus2=p1rlv27029.1.2 switch=n enabled=y phases=2 Linecode=1P_OH_AL_2/0_Rucina_2

New Line.l(r:p1rdm27578-p1rdt12162lv) Units=km Length=0.0293404 bus1=p1rdt12162lv.1.2 bus2=p1rdm27578.1.2 switch=n enabled=y phases=2 Linecode=1P_OH_AL_4/0_Zuzara_2

New Line.l(r:p1rdm27579-p1rlv27051) Units=km Length=0.0315705 bus1=p1rdm27579.1.2 bus2=p1rlv27051.1.2 switch=n enabled=y phases=2 Linecode=1P_OH_AL_4/0_Zuzara_2

New Line.l(r:p1rdm27579-p1rdt12162lv) Units=km Length=0.0150254 bus1=p1rdt12162lv.1.2 bus2=p1rdm27579.1.2 switch=n enabled=y phases=2 Linecode=1P_OH_AL_2/0_Rucina_2

New Line.l(r:p1rdt12165lv-p1rlv27039) Units=km Length=0.001 bus1=p1rdt12165lv.1.2 bus2=p1rlv27039.1.2 switch=n enabled=y phases=2 Linecode=1P_OH_AL_4_Periwinkle_2

New Line.l(r:p1rdt12175lv-p1rlv27068) Units=km Length=0.001 bus1=p1rdt12175lv.1.2 bus2=p1rlv27068.1.2 switch=n enabled=y phases=2 Linecode=1P_OH_AL_4_Periwinkle_2

New Line.l(r:p1rdt12211lv-p1rlv27131) Units=km Length=0.001 bus1=p1rdt12211lv.1.2 bus2=p1rlv27131.1.2 switch=n enabled=y phases=2 Linecode=1P_OH_AL_4_Periwinkle_2

New Line.l(r:p1rdt12219lv-p1rlv27149) Units=km Length=0.001 bus1=p1rdt12219lv.1.2 bus2=p1rlv27149.1.2 switch=n enabled=y phases=2 Linecode=1P_OH_AL_4_Periwinkle_2

New Line.l(r:p1rdt12248lv-p1rlv27220) Units=km Length=0.048585 bus1=p1rdt12248lv.1.2 bus2=p1rlv27220.1.2 switch=n enabled=y phases=2 Linecode=1P_OH_AL_4/0_Zuzara_2

New Line.l(r:p1rdt12257lv-p1rlv27245) Units=km Length=0.041541 bus1=p1rdt12257lv.1.2 bus2=p1rlv27245.1.2 switch=n enabled=y phases=2 Linecode=1P_OH_AL_4/0_Zuzara_2

New Line.l(r:p1rdt12261lv-p1rlv27261) Units=km Length=0.001 bus1=p1rdt12261lv.1.2 bus2=p1rlv27261.1.2 switch=n enabled=y phases=2 Linecode=1P_OH_AL_4_Periwinkle_2

New Line.l(r:p1rdt12263lv-p1rlv27272) Units=km Length=0.00823848 bus1=p1rdt12263lv.1.2 bus2=p1rlv27272.1.2 switch=n enabled=y phases=2 Linecode=1P_OH_AL_2/0_Rucina_2

New Line.l(r:p1rdt12699lv-p1rlv28207) Units=km Length=0.009470190000000002 bus1=p1rdt12699lv.1.2 bus2=p1rlv28207.1.2 switch=n enabled=y phases=2 Linecode=1P_OH_AL_2/0_Rucina_2

New Line.l(r:p1rdt12699lv-p1rlv28583) Units=km Length=0.0315503 bus1=p1rdt12699lv.1.2 bus2=p1rlv28583.1.2 switch=n enabled=y phases=2 Linecode=1P_OH_AL_4/0_Zuzara_2

New Line.l(r:p1rdm28694-p1rlv28377) Units=km Length=0.0199035 bus1=p1rdm28694.1.2 bus2=p1rlv28377.1.2 switch=n enabled=y phases=2 Linecode=1P_OH_AL_2/0_Rucina_2

New Line.l(r:p1rdm28694-p1rlv28512) Units=km Length=0.023073 bus1=p1rdm28694.1.2 bus2=p1rlv28512.1.2 switch=n enabled=y phases=2 Linecode=1P_OH_AL_2/0_Rucina_2

New Line.l(r:p1rdm28693-p1rlv28375) Units=km Length=0.0160824 bus1=p1rdm28693.1.2 bus2=p1rlv28375.1.2 switch=n enabled=y phases=2 Linecode=1P_OH_AL_2/0_Rucina_2

New Line.l(r:p1rdm28695-p1rlv28403) Units=km Length=0.0114968 bus1=p1rdm28695.1.2 bus2=p1rlv28403.1.2 switch=n enabled=y phases=2 Linecode=1P_OH_AL_2/0_Rucina_2

...