tests/data/upgrade-models/sb10_p1rhs25_1247_trans_301/p1rdt12732/OpenDSS/Loads.dss
New Load.load_p1rlv10450_1 conn=wye bus1=p1rlv10450.1 kV=0.12 Vminpu=0.8 Vmaxpu=1.2 model=1 kW=1.7675749799903273 kvar=0.6204429178040327 Phases=1
New Load.load_p1rlv10450_2 conn=wye bus1=p1rlv10450.2 kV=0.12 Vminpu=0.8 Vmaxpu=1.2 model=1 kW=1.7675749799903273 kvar=0.6204429178040327 Phases=1
New Load.load_p1rlv10451_1 conn=wye bus1=p1rlv10451.1 kV=0.12 Vminpu=0.8 Vmaxpu=1.2 model=1 kW=5.569433532353901 kvar=0.07828940019258053 Phases=1
New Load.load_p1rlv10451_2 conn=wye bus1=p1rlv10451.2 kV=0.12 Vminpu=0.8 Vmaxpu=1.2 model=1 kW=5.569433532353901 kvar=0.07828940019258053 Phases=1
New Load.load_p1rlv10455_1 conn=wye bus1=p1rlv10455.1 kV=0.12 Vminpu=0.8 Vmaxpu=1.2 model=1 kW=5.999629309717645 kvar=0.4903107651984032 Phases=1
New Load.load_p1rlv10455_2 conn=wye bus1=p1rlv10455.2 kV=0.12 Vminpu=0.8 Vmaxpu=1.2 model=1 kW=5.999629309717645 kvar=0.4903107651984032 Phases=1
New Load.load_p1rlv10463_1 conn=wye bus1=p1rlv10463.1 kV=0.12 Vminpu=0.8 Vmaxpu=1.2 model=1 kW=5.6513633845246565 kvar=1.2660728679082136 Phases=1
New Load.load_p1rlv10463_2 conn=wye bus1=p1rlv10463.2 kV=0.12 Vminpu=0.8 Vmaxpu=1.2 model=1 kW=5.6513633845246565 kvar=1.2660728679082136 Phases=1
New Load.load_p1rlv10466_1 conn=wye bus1=p1rlv10466.1 kV=0.12 Vminpu=0.8 Vmaxpu=1.2 model=1 kW=2.3439175585507637 kvar=0.8866404836608991 Phases=1
New Load.load_p1rlv10466_2 conn=wye bus1=p1rlv10466.2 kV=0.12 Vminpu=0.8 Vmaxpu=1.2 model=1 kW=2.3439175585507637 kvar=0.8866404836608991 Phases=1
New Load.load_p1rlv10493_1 conn=wye bus1=p1rlv10493.1 kV=0.12 Vminpu=0.8 Vmaxpu=1.2 model=1 kW=2.292799122473319 kvar=0.5385753507809203 Phases=1
New Load.load_p1rlv10493_2 conn=wye bus1=p1rlv10493.2 kV=0.12 Vminpu=0.8 Vmaxpu=1.2 model=1 kW=2.292799122473319 kvar=0.5385753507809203 Phases=1
New Load.load_p1rlv10655_1 conn=wye bus1=p1rlv10655.1 kV=0.12 Vminpu=0.8 Vmaxpu=1.2 model=1 kW=3.737986692242784 kvar=0.8906640815201406 Phases=1
New Load.load_p1rlv10655_2 conn=wye bus1=p1rlv10655.2 kV=0.12 Vminpu=0.8 Vmaxpu=1.2 model=1 kW=3.737986692242784 kvar=0.8906640815201406 Phases=1
New Load.load_p1rlv10696_1 conn=wye bus1=p1rlv10696.1 kV=0.12 Vminpu=0.8 Vmaxpu=1.2 model=1 kW=1.5670847441713207 kvar=0.5540004468841006 Phases=1
New Load.load_p1rlv10696_2 conn=wye bus1=p1rlv10696.2 kV=0.12 Vminpu=0.8 Vmaxpu=1.2 model=1 kW=1.5670847441713207 kvar=0.5540004468841006 Phases=1
New Load.load_p1rlv10715_1 conn=wye bus1=p1rlv10715.1 kV=0.12 Vminpu=0.8 Vmaxpu=1.2 model=1 kW=1.344029820897165 kvar=0.5082087898616895 Phases=1
New Load.load_p1rlv10715_2 conn=wye bus1=p1rlv10715.2 kV=0.12 Vminpu=0.8 Vmaxpu=1.2 model=1 kW=1.344029820897165 kvar=0.5082087898616895 Phases=1
New Load.load_p1rlv10755_1 conn=wye bus1=p1rlv10755.1 kV=0.12 Vminpu=0.8 Vmaxpu=1.2 model=1 kW=5.2005516092690005 kvar=1.29985457921054 Phases=1
New Load.load_p1rlv10755_2 conn=wye bus1=p1rlv10755.2 kV=0.12 Vminpu=0.8 Vmaxpu=1.2 model=1 kW=5.2005516092690005 kvar=1.29985457921054 Phases=1
New Load.load_p1rlv10881_1 conn=wye bus1=p1rlv10881.1 kV=0.12 Vminpu=0.8 Vmaxpu=1.2 model=1 kW=1.1024311883264026 kvar=0.3929988371277374 Phases=1
New Load.load_p1rlv10881_2 conn=wye bus1=p1rlv10881.2 kV=0.12 Vminpu=0.8 Vmaxpu=1.2 model=1 kW=1.1024311883264026 kvar=0.3929988371277374 Phases=1
New Load.load_p1rlv10901_1 conn=wye bus1=p1rlv10901.1 kV=0.12 Vminpu=0.8 Vmaxpu=1.2 model=1 kW=3.931702677734481 kvar=1.168190857328403 Phases=1
New Load.load_p1rlv10901_2 conn=wye bus1=p1rlv10901.2 kV=0.12 Vminpu=0.8 Vmaxpu=1.2 model=1 kW=3.931702677734481 kvar=1.168190857328403 Phases=1
New Load.load_p1rlv11092_1 conn=wye bus1=p1rlv11092.1 kV=0.12 Vminpu=0.8 Vmaxpu=1.2 model=1 kW=0.7984560402451683 kvar=0.17786587794089623 Phases=1
New Load.load_p1rlv11092_2 conn=wye bus1=p1rlv11092.2 kV=0.12 Vminpu=0.8 Vmaxpu=1.2 model=1 kW=0.7984560402451683 kvar=0.17786587794089623 Phases=1
New Load.load_p1rlv11603_1 conn=wye bus1=p1rlv11603.1 kV=0.12 Vminpu=0.8 Vmaxpu=1.2 model=1 kW=1.4148353854888571 kvar=0.6393114443430603 Phases=1
New Load.load_p1rlv11603_2 conn=wye bus1=p1rlv11603.2 kV=0.12 Vminpu=0.8 Vmaxpu=1.2 model=1 kW=1.4148353854888571 kvar=0.6393114443430603 Phases=1
New Load.load_p1rlv11612_1 conn=wye bus1=p1rlv11612.1 kV=0.12 Vminpu=0.8 Vmaxpu=1.2 model=1 kW=1.9488456441115172 kvar=0.029623088264837956 Phases=1
New Load.load_p1rlv11612_2 conn=wye bus1=p1rlv11612.2 kV=0.12 Vminpu=0.8 Vmaxpu=1.2 model=1 kW=1.9488456441115172 kvar=0.029623088264837956 Phases=1
New Load.load_p1rlv11668_1 conn=wye bus1=p1rlv11668.1 kV=0.12 Vminpu=0.8 Vmaxpu=1.2 model=1 kW=1.3899560615407072 kvar=0.534907325009869 Phases=1
New Load.load_p1rlv11668_2 conn=wye bus1=p1rlv11668.2 kV=0.12 Vminpu=0.8 Vmaxpu=1.2 model=1 kW=1.3899560615407072 kvar=0.534907325009869 Phases=1
New Load.load_p1rlv11672_1 conn=wye bus1=p1rlv11672.1 kV=0.12 Vminpu=0.8 Vmaxpu=1.2 model=1 kW=3.0363799452523006 kvar=0.8773696756055507 Phases=1
New Load.load_p1rlv11672_2 conn=wye bus1=p1rlv11672.2 kV=0.12 Vminpu=0.8 Vmaxpu=1.2 model=1 kW=3.0363799452523006 kvar=0.8773696756055507 Phases=1
...